cmp_1
  -OEChem-06141812483D

 45 48  0     0  0  0  0  0  0999 V2000
    3.1459   -0.6702    1.5942 C   0  0  0  0  0  0  0  0  0  0  0  0
    2.0392    0.5186   -2.3487 C   0  0  0  0  0  0  0  0  0  0  0  0
    4.4389    0.7816   -2.2529 C   0  0  0  0  0  0  0  0  0  0  0  0
    2.0676   -0.0954    2.2667 C   0  0  0  0  0  0  0  0  0  0  0  0
    1.8823    1.8969   -2.2038 C   0  0  0  0  0  0  0  0  0  0  0  0
    4.2820    2.1600   -2.1080 C   0  0  0  0  0  0  0  0  0  0  0  0
    1.6177   -2.0168    0.2948 C   0  0  0  0  0  0  0  0  0  0  0  0
    5.4559   -2.8867   -1.6223 C   0  0  0  0  0  0  0  0  0  0  0  0
    8.9652   -5.2836    0.0093 C   0  0  0  0  0  0  0  0  0  0  0  0
    2.9210   -1.6309    0.6081 C   0  0  0  0  0  0  0  0  0  0  0  0
    3.3176   -0.0391   -2.3733 C   0  0  0  0  0  0  0  0  0  0  0  0
    4.2859   -2.1838   -1.4691 C   0  0  0  0  0  0  0  0  0  0  0  0
    0.7643   -0.4813    1.9534 C   0  0  0  0  0  0  0  0  0  0  0  0
    0.5394   -1.4420    0.9674 C   0  0  0  0  0  0  0  0  0  0  0  0
    3.0037    2.7177   -2.0834 C   0  0  0  0  0  0  0  0  0  0  0  0
    4.0311   -2.2220   -0.0851 C   0  0  0  0  0  0  0  0  0  0  0  0
    8.3757   -5.0969    1.2421 C   0  0  0  0  0  0  0  0  0  0  0  0
    6.9144   -4.0200    0.0113 C   0  0  0  0  0  0  0  0  0  0  0  0
    8.9162   -5.6057    2.4711 C   0  0  0  0  0  0  0  0  0  0  0  0
    3.4892   -1.5441   -2.5307 C   0  0  0  0  0  0  0  0  0  0  0  0
    4.9640   -2.8961    0.5926 N   0  0  0  0  0  0  0  0  0  0  0  0
    7.1998   -4.3722    1.2452 N   0  0  0  0  0  0  0  0  0  0  0  0
    5.8165   -3.2879   -0.3696 N   0  0  0  0  0  0  0  0  0  0  0  0
    2.7228    4.5865   -0.2037 N   0  0  0  0  0  0  0  0  0  0  0  0
    9.9642   -6.2688    2.5938 O   0  0  0  0  0  0  0  0  0  0  0  0
    4.0236    5.0948   -2.3705 O   0  0  0  0  0  0  0  0  0  0  0  0
    1.5207    4.8238   -2.4698 O   0  0  0  0  0  0  0  0  0  0  0  0
    8.1559   -5.2924    3.5649 O   0  5  0  0  0  0  0  0  0  0  0  0
   -0.2708    0.0705    2.5998 F   0  0  0  0  0  0  0  0  0  0  0  0
   -0.7121   -1.8119    0.6659 F   0  0  0  0  0  0  0  0  0  0  0  0
    8.0165   -4.5270   -1.2026 S   0  0  0  0  0  0  0  0  0  0  0  0
    2.8076    4.4432   -1.9042 S   0  0  0  0  0  0  0  0  0  0  0  0
    4.1558   -0.3582    1.8499 H   0  0  0  0  0  0  0  0  0  0  0  0
    1.1597   -0.1131   -2.4415 H   0  0  0  0  0  0  0  0  0  0  0  0
    5.4388    0.3559   -2.2706 H   0  0  0  0  0  0  0  0  0  0  0  0
    2.2419    0.6529    3.0342 H   0  0  0  0  0  0  0  0  0  0  0  0
    0.8818    2.3211   -2.1854 H   0  0  0  0  0  0  0  0  0  0  0  0
    5.1626    2.7902   -2.0146 H   0  0  0  0  0  0  0  0  0  0  0  0
    1.4255   -2.7643   -0.4712 H   0  0  0  0  0  0  0  0  0  0  0  0
    6.0451   -3.1290   -2.4970 H   0  0  0  0  0  0  0  0  0  0  0  0
    9.8768   -5.8102   -0.2352 H   0  0  0  0  0  0  0  0  0  0  0  0
    2.4786   -1.9983   -2.6079 H   0  0  0  0  0  0  0  0  0  0  0  0
    3.9237   -1.7369   -3.5345 H   0  0  0  0  0  0  0  0  0  0  0  0
    3.5239    5.0043    0.2853 H   0  0  0  0  0  0  0  0  0  0  0  0
    1.8140    4.8172    0.2159 H   0  0  0  0  0  0  0  0  0  0  0  0
  1  4  1  0  0  0  0
  1 10  2  0  0  0  0
  2  5  1  0  0  0  0
  2 11  2  0  0  0  0
  3  6  2  0  0  0  0
  3 11  1  0  0  0  0
  4 13  2  0  0  0  0
  5 15  2  0  0  0  0
  6 15  1  0  0  0  0
  7 10  1  0  0  0  0
  7 14  2  0  0  0  0
  8 12  2  0  0  0  0
  8 23  1  0  0  0  0
  9 17  2  0  0  0  0
  9 31  1  0  0  0  0
 10 16  1  0  0  0  0
 11 20  1  0  0  0  0
 12 16  1  0  0  0  0
 12 20  1  0  0  0  0
 13 14  1  0  0  0  0
 13 29  1  0  0  0  0
 14 30  1  0  0  0  0
 15 32  1  0  0  0  0
 16 21  2  0  0  0  0
 17 19  1  0  0  0  0
 17 22  1  0  0  0  0
 18 22  2  0  0  0  0
 18 23  1  0  0  0  0
 18 31  1  0  0  0  0
 19 25  2  0  0  0  0
 19 28  1  0  0  0  0
 21 23  1  0  0  0  0
 24 32  1  0  0  0  0
 26 32  2  0  0  0  0
 27 32  2  0  0  0  0
  1 33  1  0  0  0  0
  2 34  1  0  0  0  0
  3 35  1  0  0  0  0
  4 36  1  0  0  0  0
  5 37  1  0  0  0  0
  6 38  1  0  0  0  0
  7 39  1  0  0  0  0
  8 40  1  0  0  0  0
  9 41  1  0  0  0  0
 20 42  1  0  0  0  0
 20 43  1  0  0  0  0
 24 44  1  0  0  0  0
 24 45  1  0  0  0  0
M  CHG  1  28  -1
M  END
> <Molecule Name>
cmp_1

> <mmff94s_NoEstat>
50.28

> <IC50_nm>
95

> <std_dev>
1

$$$$
cmp_2
  -OEChem-06141812483D

 45 48  0     0  0  0  0  0  0999 V2000
    1.8849   -1.0358   -0.1124 C   0  0  0  0  0  0  0  0  0  0  0  0
    0.6939   -1.3453    0.5442 C   0  0  0  0  0  0  0  0  0  0  0  0
    3.0334   -0.7479    0.6249 C   0  0  0  0  0  0  0  0  0  0  0  0
    0.6512   -1.3667    1.9383 C   0  0  0  0  0  0  0  0  0  0  0  0
    2.9908   -0.7692    2.0190 C   0  0  0  0  0  0  0  0  0  0  0  0
    1.7854   -4.8339    2.4792 C   0  0  0  0  0  0  0  0  0  0  0  0
    3.3979   -4.4436    4.2355 C   0  0  0  0  0  0  0  0  0  0  0  0
    2.7550   -5.5105    1.7393 C   0  0  0  0  0  0  0  0  0  0  0  0
    4.3676   -5.1202    3.4956 C   0  0  0  0  0  0  0  0  0  0  0  0
    1.5333   -1.7050    6.2133 C   0  0  0  0  0  0  0  0  0  0  0  0
    2.4011    1.6160    9.2034 C   0  0  0  0  0  0  0  0  0  0  0  0
    1.7997   -1.0786    2.6757 C   0  0  0  0  0  0  0  0  0  0  0  0
    2.1068   -4.3003    3.7273 C   0  0  0  0  0  0  0  0  0  0  0  0
    1.4274   -2.1940    4.9342 C   0  0  0  0  0  0  0  0  0  0  0  0
    4.0461   -5.6537    2.2475 C   0  0  0  0  0  0  0  0  0  0  0  0
    1.7561   -1.1004    4.1109 C   0  0  0  0  0  0  0  0  0  0  0  0
    2.6460    2.3984    8.0944 C   0  0  0  0  0  0  0  0  0  0  0  0
    2.1415    0.5252    7.0714 C   0  0  0  0  0  0  0  0  0  0  0  0
    3.0335    3.7794    8.1612 C   0  0  0  0  0  0  0  0  0  0  0  0
    1.0486   -3.5609    4.5351 C   0  0  0  0  0  0  0  0  0  0  0  0
    2.0487    0.0005    4.8084 N   0  0  0  0  0  0  0  0  0  0  0  0
    2.4980    1.7746    6.8710 N   0  0  0  0  0  0  0  0  0  0  0  0
    1.9041   -0.3989    6.0835 N   0  0  0  0  0  0  0  0  0  0  0  0
    5.9342   -5.2206    0.4165 N   0  0  0  0  0  0  0  0  0  0  0  0
    3.1985    4.4466    9.2007 O   0  0  0  0  0  0  0  0  0  0  0  0
    6.2679   -7.0091    2.2428 O   0  0  0  0  0  0  0  0  0  0  0  0
    4.5888   -7.4176    0.4093 O   0  0  0  0  0  0  0  0  0  0  0  0
    3.2218    4.3465    6.9300 O   0  5  0  0  0  0  0  0  0  0  0  0
    1.9653    0.0336    8.7061 S   0  0  0  0  0  0  0  0  0  0  0  0
    5.2594   -6.5025    1.3225 S   0  0  0  0  0  0  0  0  0  0  0  0
    1.9186   -1.0202   -1.1979 H   0  0  0  0  0  0  0  0  0  0  0  0
   -0.2001   -1.5708   -0.0297 H   0  0  0  0  0  0  0  0  0  0  0  0
    3.9609   -0.5082    0.1134 H   0  0  0  0  0  0  0  0  0  0  0  0
   -0.2849   -1.6097    2.4355 H   0  0  0  0  0  0  0  0  0  0  0  0
    3.8948   -0.5424    2.5794 H   0  0  0  0  0  0  0  0  0  0  0  0
    0.7823   -4.7269    2.0751 H   0  0  0  0  0  0  0  0  0  0  0  0
    3.6575   -4.0308    5.2068 H   0  0  0  0  0  0  0  0  0  0  0  0
    2.4943   -5.9219    0.7677 H   0  0  0  0  0  0  0  0  0  0  0  0
    5.3704   -5.2257    3.9009 H   0  0  0  0  0  0  0  0  0  0  0  0
    1.3778   -2.1666    7.1796 H   0  0  0  0  0  0  0  0  0  0  0  0
    2.4534    1.8839   10.2491 H   0  0  0  0  0  0  0  0  0  0  0  0
    0.1051   -3.5646    3.9491 H   0  0  0  0  0  0  0  0  0  0  0  0
    0.7931   -4.1841    5.4182 H   0  0  0  0  0  0  0  0  0  0  0  0
    6.8800   -4.9030    0.6614 H   0  0  0  0  0  0  0  0  0  0  0  0
    5.7309   -5.1823   -0.5897 H   0  0  0  0  0  0  0  0  0  0  0  0
  1  2  2  0  0  0  0
  1  3  1  0  0  0  0
  2  4  1  0  0  0  0
  3  5  2  0  0  0  0
  4 12  2  0  0  0  0
  5 12  1  0  0  0  0
  6  8  1  0  0  0  0
  6 13  2  0  0  0  0
  7  9  2  0  0  0  0
  7 13  1  0  0  0  0
  8 15  2  0  0  0  0
  9 15  1  0  0  0  0
 10 14  2  0  0  0  0
 10 23  1  0  0  0  0
 11 17  2  0  0  0  0
 11 29  1  0  0  0  0
 12 16  1  0  0  0  0
 13 20  1  0  0  0  0
 14 16  1  0  0  0  0
 14 20  1  0  0  0  0
 15 30  1  0  0  0  0
 16 21  2  0  0  0  0
 17 19  1  0  0  0  0
 17 22  1  0  0  0  0
 18 22  2  0  0  0  0
 18 23  1  0  0  0  0
 18 29  1  0  0  0  0
 19 25  2  0  0  0  0
 19 28  1  0  0  0  0
 21 23  1  0  0  0  0
 24 30  1  0  0  0  0
 26 30  2  0  0  0  0
 27 30  2  0  0  0  0
  1 31  1  0  0  0  0
  2 32  1  0  0  0  0
  3 33  1  0  0  0  0
  4 34  1  0  0  0  0
  5 35  1  0  0  0  0
  6 36  1  0  0  0  0
  7 37  1  0  0  0  0
  8 38  1  0  0  0  0
  9 39  1  0  0  0  0
 10 40  1  0  0  0  0
 11 41  1  0  0  0  0
 20 42  1  0  0  0  0
 20 43  1  0  0  0  0
 24 44  1  0  0  0  0
 24 45  1  0  0  0  0
M  CHG  1  28  -1
M  END
> <Molecule Name>
cmp_2

> <mmff94s_NoEstat>
50.20

> <IC50_nm>
176

> <std_dev>
32

$$$$
cmp_3
  -OEChem-06141812483D

 55 59  0     0  0  0  0  0  0999 V2000
    1.4000   -6.4414    3.6993 C   0  0  0  0  0  0  0  0  0  0  0  0
    0.6969   -6.0509    4.8389 C   0  0  0  0  0  0  0  0  0  0  0  0
    2.1807   -5.5139    3.0094 C   0  0  0  0  0  0  0  0  0  0  0  0
    2.8699   -0.3738    5.2911 C   0  0  0  0  0  0  0  0  0  0  0  0
    0.7743   -4.7327    5.2885 C   0  0  0  0  0  0  0  0  0  0  0  0
    2.2581   -4.1958    3.4590 C   0  0  0  0  0  0  0  0  0  0  0  0
    2.7921   -1.6918    4.8413 C   0  0  0  0  0  0  0  0  0  0  0  0
    1.7908    0.1980    5.9652 C   0  0  0  0  0  0  0  0  0  0  0  0
   -1.1267   -0.2980    2.8759 C   0  0  0  0  0  0  0  0  0  0  0  0
   -2.8852   -1.1447    4.2999 C   0  0  0  0  0  0  0  0  0  0  0  0
   -1.2545   -1.4167    2.0527 C   0  0  0  0  0  0  0  0  0  0  0  0
   -3.0130   -2.2635    3.4767 C   0  0  0  0  0  0  0  0  0  0  0  0
    0.5560   -1.8663    5.7395 C   0  0  0  0  0  0  0  0  0  0  0  0
   -2.3361    1.0988    7.3907 C   0  0  0  0  0  0  0  0  0  0  0  0
   -3.2817    1.1647   11.8431 C   0  0  0  0  0  0  0  0  0  0  0  0
    1.5549   -3.8052    4.5986 C   0  0  0  0  0  0  0  0  0  0  0  0
    1.6351   -2.4381    5.0655 C   0  0  0  0  0  0  0  0  0  0  0  0
    0.6339   -0.5482    6.1893 C   0  0  0  0  0  0  0  0  0  0  0  0
   -1.9420   -0.1620    3.9995 C   0  0  0  0  0  0  0  0  0  0  0  0
   -1.5533    0.7489    6.3177 C   0  0  0  0  0  0  0  0  0  0  0  0
   -2.1977   -2.3995    2.3531 C   0  0  0  0  0  0  0  0  0  0  0  0
   -0.4760    0.0413    6.8839 C   0  0  0  0  0  0  0  0  0  0  0  0
   -2.1106    0.4511   11.9890 C   0  0  0  0  0  0  0  0  0  0  0  0
   -2.0872    0.6809    9.8080 C   0  0  0  0  0  0  0  0  0  0  0  0
   -1.5996    0.0051   13.2545 C   0  0  0  0  0  0  0  0  0  0  0  0
   -1.8021    1.0590    4.8989 C   0  0  0  0  0  0  0  0  0  0  0  0
   -0.5632   -0.0534    8.2134 N   0  0  0  0  0  0  0  0  0  0  0  0
   -1.4245    0.1724   10.8231 N   0  0  0  0  0  0  0  0  0  0  0  0
   -1.7045    0.5993    8.4915 N   0  0  0  0  0  0  0  0  0  0  0  0
   -1.2490   -4.8722    2.0526 N   0  0  0  0  0  0  0  0  0  0  0  0
   -2.1270    0.1944   14.3676 O   0  0  0  0  0  0  0  0  0  0  0  0
   -3.7043   -4.3339    1.4807 O   0  0  0  0  0  0  0  0  0  0  0  0
   -1.8706   -3.4538   -0.0061 O   0  0  0  0  0  0  0  0  0  0  0  0
   -0.4227   -0.6851   13.1476 O   0  5  0  0  0  0  0  0  0  0  0  0
   -3.5434    1.5078   10.1833 S   0  0  0  0  0  0  0  0  0  0  0  0
   -2.3594   -3.7987    1.3216 S   0  0  0  0  0  0  0  0  0  0  0  0
    1.3409   -7.4682    3.3503 H   0  0  0  0  0  0  0  0  0  0  0  0
    0.0903   -6.7733    5.3771 H   0  0  0  0  0  0  0  0  0  0  0  0
    2.7295   -5.8176    2.1228 H   0  0  0  0  0  0  0  0  0  0  0  0
    3.7707    0.2072    5.1169 H   0  0  0  0  0  0  0  0  0  0  0  0
    0.2204   -4.4438    6.1787 H   0  0  0  0  0  0  0  0  0  0  0  0
    2.8712   -3.4840    2.9113 H   0  0  0  0  0  0  0  0  0  0  0  0
    3.6417   -2.1232    4.3172 H   0  0  0  0  0  0  0  0  0  0  0  0
    1.8670    1.2265    6.3097 H   0  0  0  0  0  0  0  0  0  0  0  0
   -0.3888    0.4624    2.6342 H   0  0  0  0  0  0  0  0  0  0  0  0
   -3.5244   -1.0474    5.1734 H   0  0  0  0  0  0  0  0  0  0  0  0
   -0.6139   -1.5131    1.1801 H   0  0  0  0  0  0  0  0  0  0  0  0
   -3.7509   -3.0233    3.7202 H   0  0  0  0  0  0  0  0  0  0  0  0
   -0.3469   -2.4498    5.9139 H   0  0  0  0  0  0  0  0  0  0  0  0
   -3.2654    1.6490    7.4595 H   0  0  0  0  0  0  0  0  0  0  0  0
   -3.9764    1.4933   12.6031 H   0  0  0  0  0  0  0  0  0  0  0  0
   -1.0015    1.7043    4.4791 H   0  0  0  0  0  0  0  0  0  0  0  0
   -2.7125    1.6829    4.7747 H   0  0  0  0  0  0  0  0  0  0  0  0
   -0.2465   -4.6741    1.9473 H   0  0  0  0  0  0  0  0  0  0  0  0
   -1.4986   -5.2779    2.9628 H   0  0  0  0  0  0  0  0  0  0  0  0
  1  2  2  0  0  0  0
  1  3  1  0  0  0  0
  2  5  1  0  0  0  0
  3  6  2  0  0  0  0
  4  7  1  0  0  0  0
  4  8  2  0  0  0  0
  5 16  2  0  0  0  0
  6 16  1  0  0  0  0
  7 17  2  0  0  0  0
  8 18  1  0  0  0  0
  9 11  1  0  0  0  0
  9 19  2  0  0  0  0
 10 12  2  0  0  0  0
 10 19  1  0  0  0  0
 11 21  2  0  0  0  0
 12 21  1  0  0  0  0
 13 17  1  0  0  0  0
 13 18  2  0  0  0  0
 14 20  2  0  0  0  0
 14 29  1  0  0  0  0
 15 23  2  0  0  0  0
 15 35  1  0  0  0  0
 16 17  1  0  0  0  0
 18 22  1  0  0  0  0
 19 26  1  0  0  0  0
 20 22  1  0  0  0  0
 20 26  1  0  0  0  0
 21 36  1  0  0  0  0
 22 27  2  0  0  0  0
 23 25  1  0  0  0  0
 23 28  1  0  0  0  0
 24 28  2  0  0  0  0
 24 29  1  0  0  0  0
 24 35  1  0  0  0  0
 25 31  2  0  0  0  0
 25 34  1  0  0  0  0
 27 29  1  0  0  0  0
 30 36  1  0  0  0  0
 32 36  2  0  0  0  0
 33 36  2  0  0  0  0
  1 37  1  0  0  0  0
  2 38  1  0  0  0  0
  3 39  1  0  0  0  0
  4 40  1  0  0  0  0
  5 41  1  0  0  0  0
  6 42  1  0  0  0  0
  7 43  1  0  0  0  0
  8 44  1  0  0  0  0
  9 45  1  0  0  0  0
 10 46  1  0  0  0  0
 11 47  1  0  0  0  0
 12 48  1  0  0  0  0
 13 49  1  0  0  0  0
 14 50  1  0  0  0  0
 15 51  1  0  0  0  0
 26 52  1  0  0  0  0
 26 53  1  0  0  0  0
 30 54  1  0  0  0  0
 30 55  1  0  0  0  0
M  CHG  1  34  -1
M  END
> <Molecule Name>
cmp_3

> <mmff94s_NoEstat>
78.23

> <IC50_nm>
38

> <std_dev>
1

$$$$
cmp_4
  -OEChem-06141812483D

 43 46  0     0  0  0  0  0  0999 V2000
    1.8849   -1.0358   -0.1124 C   0  0  0  0  0  0  0  0  0  0  0  0
    0.6944   -1.3475    0.5442 C   0  0  0  0  0  0  0  0  0  0  0  0
    3.0328   -0.7457    0.6250 C   0  0  0  0  0  0  0  0  0  0  0  0
    0.6518   -1.3689    1.9382 C   0  0  0  0  0  0  0  0  0  0  0  0
    2.9902   -0.7670    2.0190 C   0  0  0  0  0  0  0  0  0  0  0  0
   -0.4946   -4.4877    6.0962 C   0  0  0  0  0  0  0  0  0  0  0  0
    1.8321   -5.1353    6.1581 C   0  0  0  0  0  0  0  0  0  0  0  0
   -0.7748   -5.3966    7.1164 C   0  0  0  0  0  0  0  0  0  0  0  0
    1.5520   -6.0442    7.1784 C   0  0  0  0  0  0  0  0  0  0  0  0
    1.5315   -1.7099    6.2117 C   0  0  0  0  0  0  0  0  0  0  0  0
    2.3805    1.6087    9.2099 C   0  0  0  0  0  0  0  0  0  0  0  0
    1.7997   -1.0786    2.6757 C   0  0  0  0  0  0  0  0  0  0  0  0
    0.8088   -4.3571    5.6169 C   0  0  0  0  0  0  0  0  0  0  0  0
    1.4289   -2.1966    4.9314 C   0  0  0  0  0  0  0  0  0  0  0  0
    0.2485   -6.1749    7.6576 C   0  0  0  0  0  0  0  0  0  0  0  0
    1.7561   -1.1004    4.1109 C   0  0  0  0  0  0  0  0  0  0  0  0
    2.6268    2.3936    8.1029 C   0  0  0  0  0  0  0  0  0  0  0  0
    2.1308    0.5206    7.0754 C   0  0  0  0  0  0  0  0  0  0  0  0
    3.0103    3.7755    8.1731 C   0  0  0  0  0  0  0  0  0  0  0  0
    2.0447   -0.0002    4.8112 N   0  0  0  0  0  0  0  0  0  0  0  0
    2.4846    1.7713    6.8781 N   0  0  0  0  0  0  0  0  0  0  0  0
    1.8992   -0.4027    6.0852 N   0  0  0  0  0  0  0  0  0  0  0  0
    0.1326   -6.3357   10.3157 N   0  0  0  0  0  0  0  0  0  0  0  0
    3.1700    4.4415    9.2143 O   0  0  0  0  0  0  0  0  0  0  0  0
   -1.5094   -7.6783    8.8504 O   0  0  0  0  0  0  0  0  0  0  0  0
    0.9169   -8.3535    8.9191 O   0  0  0  0  0  0  0  0  0  0  0  0
    3.2010    4.3451    6.9435 O   0  5  0  0  0  0  0  0  0  0  0  0
    1.0893   -3.4475    4.5967 O   0  0  0  0  0  0  0  0  0  0  0  0
    1.9506    0.0259    8.7087 S   0  0  0  0  0  0  0  0  0  0  0  0
   -0.1022   -7.3135    8.9343 S   0  0  0  0  0  0  0  0  0  0  0  0
    1.9186   -1.0202   -1.1979 H   0  0  0  0  0  0  0  0  0  0  0  0
   -0.1991   -1.5747   -0.0297 H   0  0  0  0  0  0  0  0  0  0  0  0
    3.9599   -0.5043    0.1134 H   0  0  0  0  0  0  0  0  0  0  0  0
   -0.2839   -1.6136    2.4355 H   0  0  0  0  0  0  0  0  0  0  0  0
    3.8938   -0.5385    2.5794 H   0  0  0  0  0  0  0  0  0  0  0  0
   -1.2958   -3.8836    5.6790 H   0  0  0  0  0  0  0  0  0  0  0  0
    2.8494   -5.0381    5.7889 H   0  0  0  0  0  0  0  0  0  0  0  0
   -1.7937   -5.4903    7.4822 H   0  0  0  0  0  0  0  0  0  0  0  0
    2.3565   -6.6459    7.5927 H   0  0  0  0  0  0  0  0  0  0  0  0
    1.3771   -2.1751    7.1763 H   0  0  0  0  0  0  0  0  0  0  0  0
    2.4286    1.8752   10.2562 H   0  0  0  0  0  0  0  0  0  0  0  0
   -0.6966   -6.0517   10.8516 H   0  0  0  0  0  0  0  0  0  0  0  0
    0.9615   -6.5127   10.8961 H   0  0  0  0  0  0  0  0  0  0  0  0
  1  2  2  0  0  0  0
  1  3  1  0  0  0  0
  2  4  1  0  0  0  0
  3  5  2  0  0  0  0
  4 12  2  0  0  0  0
  5 12  1  0  0  0  0
  6  8  1  0  0  0  0
  6 13  2  0  0  0  0
  7  9  2  0  0  0  0
  7 13  1  0  0  0  0
  8 15  2  0  0  0  0
  9 15  1  0  0  0  0
 10 14  2  0  0  0  0
 10 22  1  0  0  0  0
 11 17  2  0  0  0  0
 11 29  1  0  0  0  0
 12 16  1  0  0  0  0
 13 28  1  0  0  0  0
 14 16  1  0  0  0  0
 14 28  1  0  0  0  0
 15 30  1  0  0  0  0
 16 20  2  0  0  0  0
 17 19  1  0  0  0  0
 17 21  1  0  0  0  0
 18 21  2  0  0  0  0
 18 22  1  0  0  0  0
 18 29  1  0  0  0  0
 19 24  2  0  0  0  0
 19 27  1  0  0  0  0
 20 22  1  0  0  0  0
 23 30  1  0  0  0  0
 25 30  2  0  0  0  0
 26 30  2  0  0  0  0
  1 31  1  0  0  0  0
  2 32  1  0  0  0  0
  3 33  1  0  0  0  0
  4 34  1  0  0  0  0
  5 35  1  0  0  0  0
  6 36  1  0  0  0  0
  7 37  1  0  0  0  0
  8 38  1  0  0  0  0
  9 39  1  0  0  0  0
 10 40  1  0  0  0  0
 11 41  1  0  0  0  0
 23 42  1  0  0  0  0
 23 43  1  0  0  0  0
M  CHG  1  27  -1
M  END
> <Molecule Name>
cmp_4

> <mmff94s_NoEstat>
56.18

> <IC50_nm>
124

> <std_dev>
8

$$$$
cmp_5
  -OEChem-06141812483D

 54 58  0     0  0  0  0  0  0999 V2000
    0.8169   -5.0809    1.6136 C   0  0  0  0  0  0  0  0  0  0  0  0
   -0.1413   -4.0922    1.8368 C   0  0  0  0  0  0  0  0  0  0  0  0
    1.9972   -5.0888    2.3570 C   0  0  0  0  0  0  0  0  0  0  0  0
    3.0141   -0.7121    5.8086 C   0  0  0  0  0  0  0  0  0  0  0  0
    0.0807   -3.1113    2.8033 C   0  0  0  0  0  0  0  0  0  0  0  0
    2.2192   -4.1079    3.3235 C   0  0  0  0  0  0  0  0  0  0  0  0
    2.7919   -1.6931    4.8422 C   0  0  0  0  0  0  0  0  0  0  0  0
    1.9350   -0.1397    6.4822 C   0  0  0  0  0  0  0  0  0  0  0  0
   -3.1555    1.4092    3.0108 C   0  0  0  0  0  0  0  0  0  0  0  0
   -3.5032    2.8126    4.9464 C   0  0  0  0  0  0  0  0  0  0  0  0
   -4.1592    2.0987    2.3306 C   0  0  0  0  0  0  0  0  0  0  0  0
   -4.5069    3.5022    4.2661 C   0  0  0  0  0  0  0  0  0  0  0  0
    0.4117   -1.5292    5.2229 C   0  0  0  0  0  0  0  0  0  0  0  0
   -2.3314    1.1038    7.3975 C   0  0  0  0  0  0  0  0  0  0  0  0
   -3.2743    1.1491   11.8508 C   0  0  0  0  0  0  0  0  0  0  0  0
    1.2610   -3.1191    3.5467 C   0  0  0  0  0  0  0  0  0  0  0  0
    1.4908   -2.1016    4.5493 C   0  0  0  0  0  0  0  0  0  0  0  0
    0.6339   -0.5482    6.1893 C   0  0  0  0  0  0  0  0  0  0  0  0
   -2.8275    1.7661    4.3187 C   0  0  0  0  0  0  0  0  0  0  0  0
   -1.5507    0.7564    6.3222 C   0  0  0  0  0  0  0  0  0  0  0  0
   -4.8349    3.1452    2.9582 C   0  0  0  0  0  0  0  0  0  0  0  0
   -0.4760    0.0413    6.8839 C   0  0  0  0  0  0  0  0  0  0  0  0
   -2.1060    0.4300   11.9921 C   0  0  0  0  0  0  0  0  0  0  0  0
   -2.0829    0.6717    9.8124 C   0  0  0  0  0  0  0  0  0  0  0  0
   -1.5961   -0.0251   13.2548 C   0  0  0  0  0  0  0  0  0  0  0  0
   -0.5628   -0.0603    8.2129 N   0  0  0  0  0  0  0  0  0  0  0  0
   -1.4217    0.1549   10.8243 N   0  0  0  0  0  0  0  0  0  0  0  0
   -1.7013    0.5957    8.4952 N   0  0  0  0  0  0  0  0  0  0  0  0
   -7.4653    3.0845    2.5317 N   0  0  0  0  0  0  0  0  0  0  0  0
   -1.7831    1.0490    5.0270 N   0  0  0  0  0  0  0  0  0  0  0  0
   -2.1221    0.1602   14.3693 O   0  0  0  0  0  0  0  0  0  0  0  0
   -6.2177    5.3344    2.6963 O   0  0  0  0  0  0  0  0  0  0  0  0
   -5.8602    3.8713    0.6766 O   0  0  0  0  0  0  0  0  0  0  0  0
   -0.4221   -0.7195   13.1434 O   0  5  0  0  0  0  0  0  0  0  0  0
   -3.5355    1.5023   10.1930 S   0  0  0  0  0  0  0  0  0  0  0  0
   -6.0919    4.0083    2.1078 S   0  0  0  0  0  0  0  0  0  0  0  0
    0.6431   -5.8456    0.8622 H   0  0  0  0  0  0  0  0  0  0  0  0
   -1.0610   -4.0869    1.2592 H   0  0  0  0  0  0  0  0  0  0  0  0
    2.7431   -5.8592    2.1848 H   0  0  0  0  0  0  0  0  0  0  0  0
    4.0270   -0.3942    6.0369 H   0  0  0  0  0  0  0  0  0  0  0  0
   -0.6761   -2.3474    2.9657 H   0  0  0  0  0  0  0  0  0  0  0  0
    3.1437   -4.1272    3.8957 H   0  0  0  0  0  0  0  0  0  0  0  0
    3.6436   -2.1295    4.3256 H   0  0  0  0  0  0  0  0  0  0  0  0
    2.1246    0.6237    7.2329 H   0  0  0  0  0  0  0  0  0  0  0  0
   -2.6356    0.5951    2.5122 H   0  0  0  0  0  0  0  0  0  0  0  0
   -3.2547    3.0997    5.9651 H   0  0  0  0  0  0  0  0  0  0  0  0
   -4.4065    1.8119    1.3120 H   0  0  0  0  0  0  0  0  0  0  0  0
   -5.0269    4.3157    4.7651 H   0  0  0  0  0  0  0  0  0  0  0  0
   -0.6038   -1.8488    4.9933 H   0  0  0  0  0  0  0  0  0  0  0  0
   -3.2589    1.6569    7.4705 H   0  0  0  0  0  0  0  0  0  0  0  0
   -3.9673    1.4763   12.6129 H   0  0  0  0  0  0  0  0  0  0  0  0
   -8.1416    3.4983    3.1851 H   0  0  0  0  0  0  0  0  0  0  0  0
   -7.8949    2.4985    1.8055 H   0  0  0  0  0  0  0  0  0  0  0  0
   -1.0831    0.7056    4.3353 H   0  0  0  0  0  0  0  0  0  0  0  0
  1  2  1  0  0  0  0
  1  3  2  0  0  0  0
  2  5  2  0  0  0  0
  3  6  1  0  0  0  0
  4  7  1  0  0  0  0
  4  8  2  0  0  0  0
  5 16  1  0  0  0  0
  6 16  2  0  0  0  0
  7 17  2  0  0  0  0
  8 18  1  0  0  0  0
  9 11  2  0  0  0  0
  9 19  1  0  0  0  0
 10 12  1  0  0  0  0
 10 19  2  0  0  0  0
 11 21  1  0  0  0  0
 12 21  2  0  0  0  0
 13 17  1  0  0  0  0
 13 18  2  0  0  0  0
 14 20  2  0  0  0  0
 14 28  1  0  0  0  0
 15 23  2  0  0  0  0
 15 35  1  0  0  0  0
 16 17  1  0  0  0  0
 18 22  1  0  0  0  0
 19 30  1  0  0  0  0
 20 22  1  0  0  0  0
 20 30  1  0  0  0  0
 21 36  1  0  0  0  0
 22 26  2  0  0  0  0
 23 25  1  0  0  0  0
 23 27  1  0  0  0  0
 24 27  2  0  0  0  0
 24 28  1  0  0  0  0
 24 35  1  0  0  0  0
 25 31  2  0  0  0  0
 25 34  1  0  0  0  0
 26 28  1  0  0  0  0
 29 36  1  0  0  0  0
 32 36  2  0  0  0  0
 33 36  2  0  0  0  0
  1 37  1  0  0  0  0
  2 38  1  0  0  0  0
  3 39  1  0  0  0  0
  4 40  1  0  0  0  0
  5 41  1  0  0  0  0
  6 42  1  0  0  0  0
  7 43  1  0  0  0  0
  8 44  1  0  0  0  0
  9 45  1  0  0  0  0
 10 46  1  0  0  0  0
 11 47  1  0  0  0  0
 12 48  1  0  0  0  0
 13 49  1  0  0  0  0
 14 50  1  0  0  0  0
 15 51  1  0  0  0  0
 29 52  1  0  0  0  0
 29 53  1  0  0  0  0
 30 54  1  0  0  0  0
M  CHG  1  34  -1
M  END
> <Molecule Name>
cmp_5

> <mmff94s_NoEstat>
87.35

> <IC50_nm>
57

> <std_dev>
4

$$$$
cmp_6
  -OEChem-06141812483D

 44 47  0     0  0  0  0  0  0999 V2000
    1.8837   -1.0363   -0.1125 C   0  0  0  0  0  0  0  0  0  0  0  0
    2.7064   -1.9113    0.5968 C   0  0  0  0  0  0  0  0  0  0  0  0
    1.0191   -0.1824    0.5723 C   0  0  0  0  0  0  0  0  0  0  0  0
    2.6644   -1.9325    1.9909 C   0  0  0  0  0  0  0  0  0  0  0  0
    0.9770   -0.2036    1.9664 C   0  0  0  0  0  0  0  0  0  0  0  0
    1.0116   -5.9021    4.7752 C   0  0  0  0  0  0  0  0  0  0  0  0
    0.0903   -4.5463    6.5499 C   0  0  0  0  0  0  0  0  0  0  0  0
    0.6657   -7.0565    5.4774 C   0  0  0  0  0  0  0  0  0  0  0  0
   -0.2558   -5.7007    7.2522 C   0  0  0  0  0  0  0  0  0  0  0  0
    1.5318   -1.6983    6.2150 C   0  0  0  0  0  0  0  0  0  0  0  0
    2.3942    1.6332    9.1950 C   0  0  0  0  0  0  0  0  0  0  0  0
    1.7997   -1.0786    2.6757 C   0  0  0  0  0  0  0  0  0  0  0  0
    0.7240   -4.6469    5.3114 C   0  0  0  0  0  0  0  0  0  0  0  0
    1.4276   -2.1916    4.9374 C   0  0  0  0  0  0  0  0  0  0  0  0
    0.0320   -6.9558    6.7159 C   0  0  0  0  0  0  0  0  0  0  0  0
    1.7561   -1.1004    4.1109 C   0  0  0  0  0  0  0  0  0  0  0  0
    2.6393    2.4123    8.0837 C   0  0  0  0  0  0  0  0  0  0  0  0
    2.1373    0.5353    7.0664 C   0  0  0  0  0  0  0  0  0  0  0  0
    3.0255    3.7937    8.1462 C   0  0  0  0  0  0  0  0  0  0  0  0
    2.0470    0.0030    4.8051 N   0  0  0  0  0  0  0  0  0  0  0  0
    2.4929    1.7843    6.8622 N   0  0  0  0  0  0  0  0  0  0  0  0
    1.9016   -0.3924    6.0813 N   0  0  0  0  0  0  0  0  0  0  0  0
    1.0121   -8.6525    8.5230 N   0  0  0  0  0  0  0  0  0  0  0  0
    1.0837   -3.4454    4.5811 N   0  0  0  0  0  0  0  0  0  0  0  0
    3.1890    4.4645    9.1837 O   0  0  0  0  0  0  0  0  0  0  0  0
   -1.5009   -8.0787    8.4943 O   0  0  0  0  0  0  0  0  0  0  0  0
   -0.5388   -9.4963    6.6471 O   0  0  0  0  0  0  0  0  0  0  0  0
    3.2142    4.3570    6.9134 O   0  5  0  0  0  0  0  0  0  0  0  0
    1.9601    0.0488    8.7026 S   0  0  0  0  0  0  0  0  0  0  0  0
   -0.4009   -8.4003    7.5960 S   0  0  0  0  0  0  0  0  0  0  0  0
    1.9171   -1.0188   -1.1979 H   0  0  0  0  0  0  0  0  0  0  0  0
    3.3806   -2.5753    0.0639 H   0  0  0  0  0  0  0  0  0  0  0  0
    0.3795    0.4997    0.0198 H   0  0  0  0  0  0  0  0  0  0  0  0
    3.3120   -2.6204    2.5295 H   0  0  0  0  0  0  0  0  0  0  0  0
    0.2974    0.4684    2.4854 H   0  0  0  0  0  0  0  0  0  0  0  0
    1.5055   -5.9922    3.8110 H   0  0  0  0  0  0  0  0  0  0  0  0
   -0.1395   -3.5731    6.9765 H   0  0  0  0  0  0  0  0  0  0  0  0
    0.8948   -8.0290    5.0501 H   0  0  0  0  0  0  0  0  0  0  0  0
   -0.7490   -5.6103    8.2164 H   0  0  0  0  0  0  0  0  0  0  0  0
    1.3766   -2.1566    7.1833 H   0  0  0  0  0  0  0  0  0  0  0  0
    2.4454    1.9047   10.2399 H   0  0  0  0  0  0  0  0  0  0  0  0
    1.8574   -8.9738    8.0355 H   0  0  0  0  0  0  0  0  0  0  0  0
    1.2008   -8.0069    9.2995 H   0  0  0  0  0  0  0  0  0  0  0  0
    1.0536   -3.6514    3.5598 H   0  0  0  0  0  0  0  0  0  0  0  0
  1  2  2  0  0  0  0
  1  3  1  0  0  0  0
  2  4  1  0  0  0  0
  3  5  2  0  0  0  0
  4 12  2  0  0  0  0
  5 12  1  0  0  0  0
  6  8  1  0  0  0  0
  6 13  2  0  0  0  0
  7  9  2  0  0  0  0
  7 13  1  0  0  0  0
  8 15  2  0  0  0  0
  9 15  1  0  0  0  0
 10 14  2  0  0  0  0
 10 22  1  0  0  0  0
 11 17  2  0  0  0  0
 11 29  1  0  0  0  0
 12 16  1  0  0  0  0
 13 24  1  0  0  0  0
 14 16  1  0  0  0  0
 14 24  1  0  0  0  0
 15 30  1  0  0  0  0
 16 20  2  0  0  0  0
 17 19  1  0  0  0  0
 17 21  1  0  0  0  0
 18 21  2  0  0  0  0
 18 22  1  0  0  0  0
 18 29  1  0  0  0  0
 19 25  2  0  0  0  0
 19 28  1  0  0  0  0
 20 22  1  0  0  0  0
 23 30  1  0  0  0  0
 26 30  2  0  0  0  0
 27 30  2  0  0  0  0
  1 31  1  0  0  0  0
  2 32  1  0  0  0  0
  3 33  1  0  0  0  0
  4 34  1  0  0  0  0
  5 35  1  0  0  0  0
  6 36  1  0  0  0  0
  7 37  1  0  0  0  0
  8 38  1  0  0  0  0
  9 39  1  0  0  0  0
 10 40  1  0  0  0  0
 11 41  1  0  0  0  0
 23 42  1  0  0  0  0
 23 43  1  0  0  0  0
 24 44  1  0  0  0  0
M  CHG  1  28  -1
M  END
> <Molecule Name>
cmp_6

> <mmff94s_NoEstat>
62.04

> <IC50_nm>
91

> <std_dev>
6

$$$$
cmp_7
  -OEChem-06141812483D

 46 49  0     0  0  0  0  0  0999 V2000
    1.8837   -1.0363   -0.1125 C   0  0  0  0  0  0  0  0  0  0  0  0
    2.7053   -1.9123    0.5968 C   0  0  0  0  0  0  0  0  0  0  0  0
    1.0202   -0.1813    0.5723 C   0  0  0  0  0  0  0  0  0  0  0  0
    2.6633   -1.9336    1.9908 C   0  0  0  0  0  0  0  0  0  0  0  0
    0.9781   -0.2025    1.9664 C   0  0  0  0  0  0  0  0  0  0  0  0
   -0.4103   -6.7724    5.3385 C   0  0  0  0  0  0  0  0  0  0  0  0
    0.9969   -6.1027    3.4923 C   0  0  0  0  0  0  0  0  0  0  0  0
   -0.6980   -7.9704    4.6846 C   0  0  0  0  0  0  0  0  0  0  0  0
    0.7092   -7.3007    2.8384 C   0  0  0  0  0  0  0  0  0  0  0  0
    1.5352   -1.7022    6.2143 C   0  0  0  0  0  0  0  0  0  0  0  0
    2.4150    1.6210    9.1988 C   0  0  0  0  0  0  0  0  0  0  0  0
    1.7997   -1.0786    2.6757 C   0  0  0  0  0  0  0  0  0  0  0  0
    0.4372   -5.8385    4.7423 C   0  0  0  0  0  0  0  0  0  0  0  0
    1.4260   -2.1923    4.9359 C   0  0  0  0  0  0  0  0  0  0  0  0
   -0.1383   -8.2346    3.4346 C   0  0  0  0  0  0  0  0  0  0  0  0
    1.7561   -1.1004    4.1109 C   0  0  0  0  0  0  0  0  0  0  0  0
    2.6606    2.4012    8.0883 C   0  0  0  0  0  0  0  0  0  0  0  0
    2.1501    0.5277    7.0687 C   0  0  0  0  0  0  0  0  0  0  0  0
    0.7381   -4.5718    5.4312 C   0  0  0  0  0  0  0  0  0  0  0  0
    3.0516    3.7812    8.1526 C   0  0  0  0  0  0  0  0  0  0  0  0
    2.0527    0.0004    4.8068 N   0  0  0  0  0  0  0  0  0  0  0  0
    2.5096    1.7759    6.8661 N   0  0  0  0  0  0  0  0  0  0  0  0
    1.9093   -0.3972    6.0825 N   0  0  0  0  0  0  0  0  0  0  0  0
   -1.8849   -9.2912    1.7206 N   0  0  0  0  0  0  0  0  0  0  0  0
    1.0699   -3.4735    4.5897 N   0  0  0  0  0  0  0  0  0  0  0  0
    0.7293   -4.5014    6.6584 O   0  0  0  0  0  0  0  0  0  0  0  0
    3.2195    4.4495    9.1910 O   0  0  0  0  0  0  0  0  0  0  0  0
    0.5863  -10.0246    1.6898 O   0  0  0  0  0  0  0  0  0  0  0  0
   -0.8834  -10.7240    3.6129 O   0  0  0  0  0  0  0  0  0  0  0  0
    3.2399    4.3460    6.9204 O   0  5  0  0  0  0  0  0  0  0  0  0
    1.9746    0.0389    8.7044 S   0  0  0  0  0  0  0  0  0  0  0  0
   -0.4990   -9.7343    2.6163 S   0  0  0  0  0  0  0  0  0  0  0  0
    1.9171   -1.0188   -1.1979 H   0  0  0  0  0  0  0  0  0  0  0  0
    3.3787   -2.5772    0.0638 H   0  0  0  0  0  0  0  0  0  0  0  0
    0.3815    0.5016    0.0199 H   0  0  0  0  0  0  0  0  0  0  0  0
    3.3100   -2.6223    2.5295 H   0  0  0  0  0  0  0  0  0  0  0  0
    0.2994    0.4703    2.4855 H   0  0  0  0  0  0  0  0  0  0  0  0
   -0.8535   -6.5761    6.3114 H   0  0  0  0  0  0  0  0  0  0  0  0
    1.6579   -5.3817    3.0180 H   0  0  0  0  0  0  0  0  0  0  0  0
   -1.3588   -8.6915    5.1579 H   0  0  0  0  0  0  0  0  0  0  0  0
    1.1500   -7.4969    1.8648 H   0  0  0  0  0  0  0  0  0  0  0  0
    1.3806   -2.1612    7.1821 H   0  0  0  0  0  0  0  0  0  0  0  0
    2.4692    1.8904   10.2441 H   0  0  0  0  0  0  0  0  0  0  0  0
   -2.7620   -9.1394    2.2335 H   0  0  0  0  0  0  0  0  0  0  0  0
   -1.7593   -8.6626    0.9178 H   0  0  0  0  0  0  0  0  0  0  0  0
    1.0388   -3.6671    3.5727 H   0  0  0  0  0  0  0  0  0  0  0  0
  1  2  2  0  0  0  0
  1  3  1  0  0  0  0
  2  4  1  0  0  0  0
  3  5  2  0  0  0  0
  4 12  2  0  0  0  0
  5 12  1  0  0  0  0
  6  8  1  0  0  0  0
  6 13  2  0  0  0  0
  7  9  2  0  0  0  0
  7 13  1  0  0  0  0
  8 15  2  0  0  0  0
  9 15  1  0  0  0  0
 10 14  2  0  0  0  0
 10 23  1  0  0  0  0
 11 17  2  0  0  0  0
 11 31  1  0  0  0  0
 12 16  1  0  0  0  0
 13 19  1  0  0  0  0
 14 16  1  0  0  0  0
 14 25  1  0  0  0  0
 15 32  1  0  0  0  0
 16 21  2  0  0  0  0
 17 20  1  0  0  0  0
 17 22  1  0  0  0  0
 18 22  2  0  0  0  0
 18 23  1  0  0  0  0
 18 31  1  0  0  0  0
 19 25  1  0  0  0  0
 19 26  2  0  0  0  0
 20 27  2  0  0  0  0
 20 30  1  0  0  0  0
 21 23  1  0  0  0  0
 24 32  1  0  0  0  0
 28 32  2  0  0  0  0
 29 32  2  0  0  0  0
  1 33  1  0  0  0  0
  2 34  1  0  0  0  0
  3 35  1  0  0  0  0
  4 36  1  0  0  0  0
  5 37  1  0  0  0  0
  6 38  1  0  0  0  0
  7 39  1  0  0  0  0
  8 40  1  0  0  0  0
  9 41  1  0  0  0  0
 10 42  1  0  0  0  0
 11 43  1  0  0  0  0
 24 44  1  0  0  0  0
 24 45  1  0  0  0  0
 25 46  1  0  0  0  0
M  CHG  1  30  -1
M  END
> <Molecule Name>
cmp_7

> <mmff94s_NoEstat>
62.40

> <IC50_nm>
57000

$$$$
cmp_8
  -OEChem-06141812483D

 50 53  0     0  0  0  0  0  0999 V2000
    1.1656    3.4261    0.7593 C   0  0  0  0  0  0  0  0  0  0  0  0
    0.7999    2.1907    1.2935 C   0  0  0  0  0  0  0  0  0  0  0  0
    2.3167    3.5355   -0.0209 C   0  0  0  0  0  0  0  0  0  0  0  0
    1.5853    1.0645    1.0476 C   0  0  0  0  0  0  0  0  0  0  0  0
    3.1021    2.4093   -0.2668 C   0  0  0  0  0  0  0  0  0  0  0  0
    4.2781   -1.9635   -0.6219 C   0  0  0  0  0  0  0  0  0  0  0  0
    8.6483   -2.7414    0.3874 C   0  0  0  0  0  0  0  0  0  0  0  0
    2.7365    1.1738    0.2674 C   0  0  0  0  0  0  0  0  0  0  0  0
    3.1516   -1.1777   -0.6284 C   0  0  0  0  0  0  0  0  0  0  0  0
    3.5480    0.0109    0.0134 C   0  0  0  0  0  0  0  0  0  0  0  0
    8.6308   -1.4768    0.9375 C   0  0  0  0  0  0  0  0  0  0  0  0
    6.5488   -1.5680    0.2541 C   0  0  0  0  0  0  0  0  0  0  0  0
    9.7688   -0.8607    1.5596 C   0  0  0  0  0  0  0  0  0  0  0  0
    2.0476   -0.9259   -3.5164 C   0  0  0  0  0  0  0  0  0  0  0  0
   -0.0685   -0.6071   -2.3965 C   0  0  0  0  0  0  0  0  0  0  0  0
    1.6474    0.0671   -4.6066 C   0  0  0  0  0  0  0  0  0  0  0  0
   -0.5103    0.3923   -3.4646 C   0  0  0  0  0  0  0  0  0  0  0  0
    1.8067   -1.5296   -1.1953 C   0  0  0  0  0  0  0  0  0  0  0  0
    4.8264   -0.0134    0.3998 N   0  0  0  0  0  0  0  0  0  0  0  0
    7.4278   -0.8023    0.8617 N   0  0  0  0  0  0  0  0  0  0  0  0
    5.2430   -1.2268   -0.0004 N   0  0  0  0  0  0  0  0  0  0  0  0
    1.3930   -0.5964   -2.2425 N   0  3  0  0  0  0  0  0  0  0  0  0
    0.1643    0.0725   -4.7547 N   0  0  0  0  0  0  0  0  0  0  0  0
    0.1782    2.4736   -5.8086 N   0  0  0  0  0  0  0  0  0  0  0  0
   10.9004   -1.3671    1.6865 O   0  0  0  0  0  0  0  0  0  0  0  0
    0.2201    0.3823   -7.3103 O   0  0  0  0  0  0  0  0  0  0  0  0
   -1.8836    0.9530   -6.0379 O   0  0  0  0  0  0  0  0  0  0  0  0
    9.5099    0.3976    2.0310 O   0  5  0  0  0  0  0  0  0  0  0  0
    7.1007   -3.1121   -0.2521 S   0  0  0  0  0  0  0  0  0  0  0  0
   -0.4363    0.9037   -6.1262 S   0  0  0  0  0  0  0  0  0  0  0  0
    0.5535    4.3029    0.9498 H   0  0  0  0  0  0  0  0  0  0  0  0
   -0.0970    2.1051    1.9000 H   0  0  0  0  0  0  0  0  0  0  0  0
    2.6004    4.4973   -0.4378 H   0  0  0  0  0  0  0  0  0  0  0  0
    1.2870    0.1083    1.4712 H   0  0  0  0  0  0  0  0  0  0  0  0
    3.9965    2.5112   -0.8771 H   0  0  0  0  0  0  0  0  0  0  0  0
    4.4668   -2.9608   -0.9973 H   0  0  0  0  0  0  0  0  0  0  0  0
    9.4656   -3.4463    0.3301 H   0  0  0  0  0  0  0  0  0  0  0  0
    1.7883   -1.9454   -3.8319 H   0  0  0  0  0  0  0  0  0  0  0  0
    3.1370   -0.8854   -3.3974 H   0  0  0  0  0  0  0  0  0  0  0  0
   -0.5451   -0.3309   -1.4483 H   0  0  0  0  0  0  0  0  0  0  0  0
   -0.4229   -1.6120   -2.6629 H   0  0  0  0  0  0  0  0  0  0  0  0
    1.9984    1.0766   -4.3619 H   0  0  0  0  0  0  0  0  0  0  0  0
    2.1053   -0.2388   -5.5537 H   0  0  0  0  0  0  0  0  0  0  0  0
   -1.5955    0.3190   -3.5950 H   0  0  0  0  0  0  0  0  0  0  0  0
   -0.2655    1.4179   -3.1633 H   0  0  0  0  0  0  0  0  0  0  0  0
    1.8211   -2.5362   -1.6272 H   0  0  0  0  0  0  0  0  0  0  0  0
    1.0373   -1.5209   -0.4161 H   0  0  0  0  0  0  0  0  0  0  0  0
    0.8824    2.8198   -6.4745 H   0  0  0  0  0  0  0  0  0  0  0  0
   -0.5291    3.1980   -5.6245 H   0  0  0  0  0  0  0  0  0  0  0  0
    1.6741    0.3249   -1.9737 H   0  0  0  0  0  0  0  0  0  0  0  0
  1  2  2  0  0  0  0
  1  3  1  0  0  0  0
  2  4  1  0  0  0  0
  3  5  2  0  0  0  0
  4  8  2  0  0  0  0
  5  8  1  0  0  0  0
  6  9  2  0  0  0  0
  6 21  1  0  0  0  0
  7 11  2  0  0  0  0
  7 29  1  0  0  0  0
  8 10  1  0  0  0  0
  9 10  1  0  0  0  0
  9 18  1  0  0  0  0
 10 19  2  0  0  0  0
 11 13  1  0  0  0  0
 11 20  1  0  0  0  0
 12 20  2  0  0  0  0
 12 21  1  0  0  0  0
 12 29  1  0  0  0  0
 13 25  2  0  0  0  0
 13 28  1  0  0  0  0
 14 16  1  0  0  0  0
 14 22  1  0  0  0  0
 15 17  1  0  0  0  0
 15 22  1  0  0  0  0
 16 23  1  0  0  0  0
 17 23  1  0  0  0  0
 18 22  1  0  0  0  0
 19 21  1  0  0  0  0
 23 30  1  0  0  0  0
 24 30  1  0  0  0  0
 26 30  2  0  0  0  0
 27 30  2  0  0  0  0
  1 31  1  0  0  0  0
  2 32  1  0  0  0  0
  3 33  1  0  0  0  0
  4 34  1  0  0  0  0
  5 35  1  0  0  0  0
  6 36  1  0  0  0  0
  7 37  1  0  0  0  0
 14 38  1  0  0  0  0
 14 39  1  0  0  0  0
 15 40  1  0  0  0  0
 15 41  1  0  0  0  0
 16 42  1  0  0  0  0
 16 43  1  0  0  0  0
 17 44  1  0  0  0  0
 17 45  1  0  0  0  0
 18 46  1  0  0  0  0
 18 47  1  0  0  0  0
 24 48  1  0  0  0  0
 24 49  1  0  0  0  0
 22 50  1  0  0  0  0
M  CHG  2  22   1  28  -1
M  END
> <Molecule Name>
cmp_8

> <mmff94s_NoEstat>
58.12

> <IC50_nm>
17300

> <std_dev>
8100

$$$$
cmp_9
  -OEChem-06141812483D

 47 50  0     0  0  0  0  0  0999 V2000
    1.8849   -1.0358   -0.1124 C   0  0  0  0  0  0  0  0  0  0  0  0
    0.6939   -1.3453    0.5442 C   0  0  0  0  0  0  0  0  0  0  0  0
    3.0334   -0.7479    0.6249 C   0  0  0  0  0  0  0  0  0  0  0  0
    0.6512   -1.3667    1.9383 C   0  0  0  0  0  0  0  0  0  0  0  0
    2.9908   -0.7692    2.0190 C   0  0  0  0  0  0  0  0  0  0  0  0
    0.7274   -6.1905    3.4000 C   0  0  0  0  0  0  0  0  0  0  0  0
    2.9584   -6.0641    2.4816 C   0  0  0  0  0  0  0  0  0  0  0  0
    0.5730   -7.4630    2.8501 C   0  0  0  0  0  0  0  0  0  0  0  0
    2.8041   -7.3368    1.9317 C   0  0  0  0  0  0  0  0  0  0  0  0
    1.5333   -1.7050    6.2133 C   0  0  0  0  0  0  0  0  0  0  0  0
    2.4011    1.6160    9.2034 C   0  0  0  0  0  0  0  0  0  0  0  0
    1.7997   -1.0786    2.6757 C   0  0  0  0  0  0  0  0  0  0  0  0
    1.4274   -2.1940    4.9342 C   0  0  0  0  0  0  0  0  0  0  0  0
    1.9200   -5.4910    3.2156 C   0  0  0  0  0  0  0  0  0  0  0  0
    1.6114   -8.0362    2.1160 C   0  0  0  0  0  0  0  0  0  0  0  0
    1.7561   -1.1004    4.1109 C   0  0  0  0  0  0  0  0  0  0  0  0
    2.6460    2.3984    8.0944 C   0  0  0  0  0  0  0  0  0  0  0  0
    2.1415    0.5252    7.0714 C   0  0  0  0  0  0  0  0  0  0  0  0
    3.0335    3.7794    8.1612 C   0  0  0  0  0  0  0  0  0  0  0  0
    1.0486   -3.5609    4.5351 C   0  0  0  0  0  0  0  0  0  0  0  0
    2.0487    0.0005    4.8084 N   0  0  0  0  0  0  0  0  0  0  0  0
    2.4980    1.7746    6.8710 N   0  0  0  0  0  0  0  0  0  0  0  0
    1.9041   -0.3989    6.0835 N   0  0  0  0  0  0  0  0  0  0  0  0
    0.7672   -9.2441   -0.1050 N   0  0  0  0  0  0  0  0  0  0  0  0
    2.0736   -4.2287    3.7608 N   0  0  0  0  0  0  0  0  0  0  0  0
    3.1985    4.4466    9.2007 O   0  0  0  0  0  0  0  0  0  0  0  0
    2.7403  -10.2123    1.2422 O   0  0  0  0  0  0  0  0  0  0  0  0
    0.4122  -10.3470    2.1959 O   0  0  0  0  0  0  0  0  0  0  0  0
    3.2218    4.3465    6.9300 O   0  5  0  0  0  0  0  0  0  0  0  0
    1.9653    0.0336    8.7061 S   0  0  0  0  0  0  0  0  0  0  0  0
    1.4190   -9.6288    1.4269 S   0  0  0  0  0  0  0  0  0  0  0  0
    1.9186   -1.0202   -1.1979 H   0  0  0  0  0  0  0  0  0  0  0  0
   -0.2001   -1.5708   -0.0297 H   0  0  0  0  0  0  0  0  0  0  0  0
    3.9609   -0.5082    0.1134 H   0  0  0  0  0  0  0  0  0  0  0  0
   -0.2849   -1.6097    2.4355 H   0  0  0  0  0  0  0  0  0  0  0  0
    3.8948   -0.5424    2.5794 H   0  0  0  0  0  0  0  0  0  0  0  0
   -0.0884   -5.7532    3.9699 H   0  0  0  0  0  0  0  0  0  0  0  0
    3.8924   -5.5282    2.3328 H   0  0  0  0  0  0  0  0  0  0  0  0
   -0.3605   -7.9987    2.9999 H   0  0  0  0  0  0  0  0  0  0  0  0
    3.6198   -7.7735    1.3615 H   0  0  0  0  0  0  0  0  0  0  0  0
    1.3778   -2.1666    7.1796 H   0  0  0  0  0  0  0  0  0  0  0  0
    2.4534    1.8839   10.2491 H   0  0  0  0  0  0  0  0  0  0  0  0
    0.8422   -4.2053    5.4094 H   0  0  0  0  0  0  0  0  0  0  0  0
    0.1291   -3.5807    3.9218 H   0  0  0  0  0  0  0  0  0  0  0  0
    1.3675   -9.3690   -0.9293 H   0  0  0  0  0  0  0  0  0  0  0  0
   -0.2225   -9.4598   -0.2758 H   0  0  0  0  0  0  0  0  0  0  0  0
    2.9477   -3.7409    3.6121 H   0  0  0  0  0  0  0  0  0  0  0  0
  1  2  2  0  0  0  0
  1  3  1  0  0  0  0
  2  4  1  0  0  0  0
  3  5  2  0  0  0  0
  4 12  2  0  0  0  0
  5 12  1  0  0  0  0
  6  8  1  0  0  0  0
  6 14  2  0  0  0  0
  7  9  2  0  0  0  0
  7 14  1  0  0  0  0
  8 15  2  0  0  0  0
  9 15  1  0  0  0  0
 10 13  2  0  0  0  0
 10 23  1  0  0  0  0
 11 17  2  0  0  0  0
 11 30  1  0  0  0  0
 12 16  1  0  0  0  0
 13 16  1  0  0  0  0
 13 20  1  0  0  0  0
 14 25  1  0  0  0  0
 15 31  1  0  0  0  0
 16 21  2  0  0  0  0
 17 19  1  0  0  0  0
 17 22  1  0  0  0  0
 18 22  2  0  0  0  0
 18 23  1  0  0  0  0
 18 30  1  0  0  0  0
 19 26  2  0  0  0  0
 19 29  1  0  0  0  0
 20 25  1  0  0  0  0
 21 23  1  0  0  0  0
 24 31  1  0  0  0  0
 27 31  2  0  0  0  0
 28 31  2  0  0  0  0
  1 32  1  0  0  0  0
  2 33  1  0  0  0  0
  3 34  1  0  0  0  0
  4 35  1  0  0  0  0
  5 36  1  0  0  0  0
  6 37  1  0  0  0  0
  7 38  1  0  0  0  0
  8 39  1  0  0  0  0
  9 40  1  0  0  0  0
 10 41  1  0  0  0  0
 11 42  1  0  0  0  0
 20 43  1  0  0  0  0
 20 44  1  0  0  0  0
 24 45  1  0  0  0  0
 24 46  1  0  0  0  0
 25 47  1  0  0  0  0
M  CHG  1  29  -1
M  END
> <Molecule Name>
cmp_9

> <mmff94s_NoEstat>
59.84

> <IC50_nm>
57000

$$$$
cmp_10
  -OEChem-06141812483D

 49 52  0     0  0  0  0  0  0999 V2000
    2.0499   -2.4345    1.3437 C   0  0  0  0  0  0  0  0  0  0  0  0
    2.2661   -3.3886   -3.7422 C   0  0  0  0  0  0  0  0  0  0  0  0
    0.9853   -1.8501   -2.3896 C   0  0  0  0  0  0  0  0  0  0  0  0
    0.9723   -1.8600    2.0178 C   0  0  0  0  0  0  0  0  0  0  0  0
    1.0950   -4.0672   -4.0792 C   0  0  0  0  0  0  0  0  0  0  0  0
   -0.1858   -2.5287   -2.7266 C   0  0  0  0  0  0  0  0  0  0  0  0
    2.7144   -0.2528    0.5466 C   0  0  0  0  0  0  0  0  0  0  0  0
    8.5449   -5.2165    1.3312 C   0  0  0  0  0  0  0  0  0  0  0  0
    2.9210   -1.6309    0.6081 C   0  0  0  0  0  0  0  0  0  0  0  0
    2.2112   -2.2800   -2.8973 C   0  0  0  0  0  0  0  0  0  0  0  0
    4.2862   -2.1842   -1.4690 C   0  0  0  0  0  0  0  0  0  0  0  0
    0.7657   -0.4819    1.9562 C   0  0  0  0  0  0  0  0  0  0  0  0
    1.6368    0.3217    1.2206 C   0  0  0  0  0  0  0  0  0  0  0  0
   -0.1309   -3.6373   -3.5715 C   0  0  0  0  0  0  0  0  0  0  0  0
    4.0311   -2.2220   -0.0851 C   0  0  0  0  0  0  0  0  0  0  0  0
    8.7807   -5.1663   -0.0267 C   0  0  0  0  0  0  0  0  0  0  0  0
    5.4559   -2.8877   -1.6219 C   0  0  0  0  0  0  0  0  0  0  0  0
    6.9114   -4.0206    0.0259 C   0  0  0  0  0  0  0  0  0  0  0  0
    9.9149   -5.7746   -0.6633 C   0  0  0  0  0  0  0  0  0  0  0  0
    7.2176   -2.2641   -3.0927 C   0  0  0  0  0  0  0  0  0  0  0  0
    3.4894   -1.5394   -2.5286 C   0  0  0  0  0  0  0  0  0  0  0  0
    4.9636   -2.8964    0.5929 N   0  0  0  0  0  0  0  0  0  0  0  0
    7.8449   -4.4813   -0.7769 N   0  0  0  0  0  0  0  0  0  0  0  0
    5.8160   -3.2889   -0.3691 N   0  0  0  0  0  0  0  0  0  0  0  0
   -1.6730   -5.6485   -2.7457 N   0  0  0  0  0  0  0  0  0  0  0  0
   10.8202   -6.4154   -0.0950 O   0  0  0  0  0  0  0  0  0  0  0  0
   -2.7176   -3.5665   -3.8500 O   0  0  0  0  0  0  0  0  0  0  0  0
   -1.3848   -5.1727   -5.2611 O   0  0  0  0  0  0  0  0  0  0  0  0
    9.9338   -5.5923   -2.0195 O   0  5  0  0  0  0  0  0  0  0  0  0
    6.1794   -3.1834   -2.6930 O   0  0  0  0  0  0  0  0  0  0  0  0
   -0.2694    0.0692    2.6032 F   0  0  0  0  0  0  0  0  0  0  0  0
    1.4389    1.6451    1.1622 F   0  0  0  0  0  0  0  0  0  0  0  0
    7.0964   -4.3736    1.6951 S   0  0  0  0  0  0  0  0  0  0  0  0
   -1.5971   -4.4853   -3.9949 S   0  0  0  0  0  0  0  0  0  0  0  0
    2.1974   -3.5104    1.4020 H   0  0  0  0  0  0  0  0  0  0  0  0
    3.2167   -3.7310   -4.1423 H   0  0  0  0  0  0  0  0  0  0  0  0
    0.9330   -0.9876   -1.7303 H   0  0  0  0  0  0  0  0  0  0  0  0
    0.2939   -2.4851    2.5909 H   0  0  0  0  0  0  0  0  0  0  0  0
    1.1490   -4.9301   -4.7378 H   0  0  0  0  0  0  0  0  0  0  0  0
   -1.1356   -2.1855   -2.3251 H   0  0  0  0  0  0  0  0  0  0  0  0
    3.3843    0.3875   -0.0224 H   0  0  0  0  0  0  0  0  0  0  0  0
    9.1314   -5.6901    2.1057 H   0  0  0  0  0  0  0  0  0  0  0  0
    7.7195   -2.6459   -3.9851 H   0  0  0  0  0  0  0  0  0  0  0  0
    7.9371   -2.1491   -2.2781 H   0  0  0  0  0  0  0  0  0  0  0  0
    6.7668   -1.2947   -3.3176 H   0  0  0  0  0  0  0  0  0  0  0  0
    4.0858   -1.4012   -3.4550 H   0  0  0  0  0  0  0  0  0  0  0  0
    3.2167   -0.4991   -2.2524 H   0  0  0  0  0  0  0  0  0  0  0  0
   -2.3933   -5.5327   -2.0224 H   0  0  0  0  0  0  0  0  0  0  0  0
   -1.4810   -6.6284   -2.9871 H   0  0  0  0  0  0  0  0  0  0  0  0
  1  4  1  0  0  0  0
  1  9  2  0  0  0  0
  2  5  1  0  0  0  0
  2 10  2  0  0  0  0
  3  6  2  0  0  0  0
  3 10  1  0  0  0  0
  4 12  2  0  0  0  0
  5 14  2  0  0  0  0
  6 14  1  0  0  0  0
  7  9  1  0  0  0  0
  7 13  2  0  0  0  0
  8 16  2  0  0  0  0
  8 33  1  0  0  0  0
  9 15  1  0  0  0  0
 10 21  1  0  0  0  0
 11 15  1  0  0  0  0
 11 17  2  0  0  0  0
 11 21  1  0  0  0  0
 12 13  1  0  0  0  0
 12 31  1  0  0  0  0
 13 32  1  0  0  0  0
 14 34  1  0  0  0  0
 15 22  2  0  0  0  0
 16 19  1  0  0  0  0
 16 23  1  0  0  0  0
 17 24  1  0  0  0  0
 17 30  1  0  0  0  0
 18 23  2  0  0  0  0
 18 24  1  0  0  0  0
 18 33  1  0  0  0  0
 19 26  2  0  0  0  0
 19 29  1  0  0  0  0
 20 30  1  0  0  0  0
 22 24  1  0  0  0  0
 25 34  1  0  0  0  0
 27 34  2  0  0  0  0
 28 34  2  0  0  0  0
  1 35  1  0  0  0  0
  2 36  1  0  0  0  0
  3 37  1  0  0  0  0
  4 38  1  0  0  0  0
  5 39  1  0  0  0  0
  6 40  1  0  0  0  0
  7 41  1  0  0  0  0
  8 42  1  0  0  0  0
 20 43  1  0  0  0  0
 20 44  1  0  0  0  0
 20 45  1  0  0  0  0
 21 46  1  0  0  0  0
 21 47  1  0  0  0  0
 25 48  1  0  0  0  0
 25 49  1  0  0  0  0
M  CHG  1  29  -1
M  END
> <Molecule Name>
cmp_10

> <mmff94s_NoEstat>
63.28

> <IC50_nm>
42

> <std_dev>
1

$$$$
cmp_11
  -OEChem-06141812483D

 46 49  0     0  0  0  0  0  0999 V2000
    1.3084   -2.3881    7.4397 C   0  0  0  0  0  0  0  0  0  0  0  0
    1.8837   -1.0363   -0.1125 C   0  0  0  0  0  0  0  0  0  0  0  0
    2.7071   -1.9106    0.5968 C   0  0  0  0  0  0  0  0  0  0  0  0
    1.0184   -0.1830    0.5723 C   0  0  0  0  0  0  0  0  0  0  0  0
    2.6651   -1.9318    1.9909 C   0  0  0  0  0  0  0  0  0  0  0  0
    0.9763   -0.2043    1.9663 C   0  0  0  0  0  0  0  0  0  0  0  0
   -1.4443   -3.7530    4.8348 C   0  0  0  0  0  0  0  0  0  0  0  0
   -0.5609   -3.7390    2.5861 C   0  0  0  0  0  0  0  0  0  0  0  0
   -2.7377   -3.8692    4.3260 C   0  0  0  0  0  0  0  0  0  0  0  0
   -1.8544   -3.8552    2.0773 C   0  0  0  0  0  0  0  0  0  0  0  0
    2.6781    2.5793    8.2266 C   0  0  0  0  0  0  0  0  0  0  0  0
    1.5320   -1.7036    6.2135 C   0  0  0  0  0  0  0  0  0  0  0  0
    1.7997   -1.0786    2.6757 C   0  0  0  0  0  0  0  0  0  0  0  0
   -0.3558   -3.6879    3.9649 C   0  0  0  0  0  0  0  0  0  0  0  0
    1.4280   -2.1938    4.9347 C   0  0  0  0  0  0  0  0  0  0  0  0
   -2.9428   -3.9203    2.9472 C   0  0  0  0  0  0  0  0  0  0  0  0
    1.7561   -1.1004    4.1109 C   0  0  0  0  0  0  0  0  0  0  0  0
    2.3562    1.4990    9.0212 C   0  0  0  0  0  0  0  0  0  0  0  0
    2.1393    0.5420    7.0599 C   0  0  0  0  0  0  0  0  0  0  0  0
    2.3313    1.5424   10.4562 C   0  0  0  0  0  0  0  0  0  0  0  0
    1.0556   -3.5604    4.5197 C   0  0  0  0  0  0  0  0  0  0  0  0
    1.1259   -2.9468    8.4403 N   0  0  0  0  0  0  0  0  0  0  0  0
    2.0466    0.0014    4.8078 N   0  0  0  0  0  0  0  0  0  0  0  0
    2.0466    0.3300    8.3539 N   0  0  0  0  0  0  0  0  0  0  0  0
    1.9014   -0.3971    6.0830 N   0  0  0  0  0  0  0  0  0  0  0  0
   -4.9996   -2.4241    2.1496 N   0  0  0  0  0  0  0  0  0  0  0  0
    2.5896    2.5338   11.1657 O   0  0  0  0  0  0  0  0  0  0  0  0
   -4.4810   -4.6642    0.9841 O   0  0  0  0  0  0  0  0  0  0  0  0
   -5.4054   -4.6789    3.3278 O   0  0  0  0  0  0  0  0  0  0  0  0
    1.9821    0.3480   11.0256 O   0  5  0  0  0  0  0  0  0  0  0  0
    2.5947    2.1240    6.5753 S   0  0  0  0  0  0  0  0  0  0  0  0
   -4.5616   -4.0679    2.3102 S   0  0  0  0  0  0  0  0  0  0  0  0
    1.9171   -1.0188   -1.1979 H   0  0  0  0  0  0  0  0  0  0  0  0
    3.3819   -2.5741    0.0640 H   0  0  0  0  0  0  0  0  0  0  0  0
    0.3783    0.4985    0.0198 H   0  0  0  0  0  0  0  0  0  0  0  0
    3.3132   -2.6192    2.5296 H   0  0  0  0  0  0  0  0  0  0  0  0
    0.2962    0.4672    2.4853 H   0  0  0  0  0  0  0  0  0  0  0  0
   -1.2942   -3.7136    5.9104 H   0  0  0  0  0  0  0  0  0  0  0  0
    0.2811   -3.6885    1.9008 H   0  0  0  0  0  0  0  0  0  0  0  0
   -3.5788   -3.9186    5.0125 H   0  0  0  0  0  0  0  0  0  0  0  0
   -2.0028   -3.8937    1.0013 H   0  0  0  0  0  0  0  0  0  0  0  0
    2.9505    3.5828    8.5217 H   0  0  0  0  0  0  0  0  0  0  0  0
    1.1625   -4.2788    5.3587 H   0  0  0  0  0  0  0  0  0  0  0  0
    1.7619   -3.9568    3.7611 H   0  0  0  0  0  0  0  0  0  0  0  0
   -5.0647   -2.0331    1.2018 H   0  0  0  0  0  0  0  0  0  0  0  0
   -5.6943   -2.0442    2.8040 H   0  0  0  0  0  0  0  0  0  0  0  0
  1 12  1  0  0  0  0
  1 22  3  0  0  0  0
  2  3  2  0  0  0  0
  2  4  1  0  0  0  0
  3  5  1  0  0  0  0
  4  6  2  0  0  0  0
  5 13  2  0  0  0  0
  6 13  1  0  0  0  0
  7  9  1  0  0  0  0
  7 14  2  0  0  0  0
  8 10  2  0  0  0  0
  8 14  1  0  0  0  0
  9 16  2  0  0  0  0
 10 16  1  0  0  0  0
 11 18  2  0  0  0  0
 11 31  1  0  0  0  0
 12 15  2  0  0  0  0
 12 25  1  0  0  0  0
 13 17  1  0  0  0  0
 14 21  1  0  0  0  0
 15 17  1  0  0  0  0
 15 21  1  0  0  0  0
 16 32  1  0  0  0  0
 17 23  2  0  0  0  0
 18 20  1  0  0  0  0
 18 24  1  0  0  0  0
 19 24  2  0  0  0  0
 19 25  1  0  0  0  0
 19 31  1  0  0  0  0
 20 27  2  0  0  0  0
 20 30  1  0  0  0  0
 23 25  1  0  0  0  0
 26 32  1  0  0  0  0
 28 32  2  0  0  0  0
 29 32  2  0  0  0  0
  2 33  1  0  0  0  0
  3 34  1  0  0  0  0
  4 35  1  0  0  0  0
  5 36  1  0  0  0  0
  6 37  1  0  0  0  0
  7 38  1  0  0  0  0
  8 39  1  0  0  0  0
  9 40  1  0  0  0  0
 10 41  1  0  0  0  0
 11 42  1  0  0  0  0
 21 43  1  0  0  0  0
 21 44  1  0  0  0  0
 26 45  1  0  0  0  0
 26 46  1  0  0  0  0
M  CHG  1  30  -1
M  END
> <Molecule Name>
cmp_11

> <mmff94s_NoEstat>
52.79

> <IC50_nm>
115

> <std_dev>
130

$$$$
cmp_12
  -OEChem-06141812483D

 55 59  0     0  0  0  0  0  0999 V2000
    1.8837   -1.0363   -0.1125 C   0  0  0  0  0  0  0  0  0  0  0  0
    0.8933   -3.6228    9.9348 C   0  0  0  0  0  0  0  0  0  0  0  0
    2.7074   -1.9104    0.5968 C   0  0  0  0  0  0  0  0  0  0  0  0
    1.0181   -0.1833    0.5722 C   0  0  0  0  0  0  0  0  0  0  0  0
    2.1612   -3.6326    9.3534 C   0  0  0  0  0  0  0  0  0  0  0  0
   -0.1644   -2.9808    9.2908 C   0  0  0  0  0  0  0  0  0  0  0  0
    2.6653   -1.9316    1.9909 C   0  0  0  0  0  0  0  0  0  0  0  0
    0.9761   -0.2045    1.9663 C   0  0  0  0  0  0  0  0  0  0  0  0
    2.3714   -3.0003    8.1280 C   0  0  0  0  0  0  0  0  0  0  0  0
    0.0458   -2.3485    8.0654 C   0  0  0  0  0  0  0  0  0  0  0  0
   -1.4432   -3.7556    4.8385 C   0  0  0  0  0  0  0  0  0  0  0  0
   -0.5605   -3.7442    2.5895 C   0  0  0  0  0  0  0  0  0  0  0  0
   -2.7367   -3.8738    4.3302 C   0  0  0  0  0  0  0  0  0  0  0  0
   -1.8540   -3.8624    2.0812 C   0  0  0  0  0  0  0  0  0  0  0  0
    2.6743    2.5861    8.2190 C   0  0  0  0  0  0  0  0  0  0  0  0
    1.7997   -1.0786    2.6757 C   0  0  0  0  0  0  0  0  0  0  0  0
    1.3137   -2.3582    7.4840 C   0  0  0  0  0  0  0  0  0  0  0  0
   -0.3551   -3.6907    3.9681 C   0  0  0  0  0  0  0  0  0  0  0  0
    1.4283   -2.1939    4.9346 C   0  0  0  0  0  0  0  0  0  0  0  0
   -2.9422   -3.9272    2.9515 C   0  0  0  0  0  0  0  0  0  0  0  0
    1.7561   -1.1004    4.1109 C   0  0  0  0  0  0  0  0  0  0  0  0
    1.5315   -1.7036    6.2135 C   0  0  0  0  0  0  0  0  0  0  0  0
    2.3527    1.5078    9.0164 C   0  0  0  0  0  0  0  0  0  0  0  0
    2.1372    0.5452    7.0576 C   0  0  0  0  0  0  0  0  0  0  0  0
    2.3271    1.5551   10.4512 C   0  0  0  0  0  0  0  0  0  0  0  0
    1.0565   -3.5610    4.5225 C   0  0  0  0  0  0  0  0  0  0  0  0
    2.0458    0.0016    4.8079 N   0  0  0  0  0  0  0  0  0  0  0  0
    2.0440    0.3367    8.3522 N   0  0  0  0  0  0  0  0  0  0  0  0
    1.9002   -0.3970    6.0831 N   0  0  0  0  0  0  0  0  0  0  0  0
   -5.0006   -2.4343    2.1522 N   0  0  0  0  0  0  0  0  0  0  0  0
    2.5844    2.5487   11.1581 O   0  0  0  0  0  0  0  0  0  0  0  0
   -4.4801   -4.6758    0.9900 O   0  0  0  0  0  0  0  0  0  0  0  0
   -5.4039   -4.6877    3.3340 O   0  0  0  0  0  0  0  0  0  0  0  0
    1.9782    0.3621   11.0238 O   0  5  0  0  0  0  0  0  0  0  0  0
    2.5920    2.1260    6.5689 S   0  0  0  0  0  0  0  0  0  0  0  0
   -4.5610   -4.0774    2.3152 S   0  0  0  0  0  0  0  0  0  0  0  0
    1.9171   -1.0188   -1.1979 H   0  0  0  0  0  0  0  0  0  0  0  0
    0.7296   -4.1157   10.8887 H   0  0  0  0  0  0  0  0  0  0  0  0
    3.3823   -2.5737    0.0640 H   0  0  0  0  0  0  0  0  0  0  0  0
    0.3779    0.4981    0.0198 H   0  0  0  0  0  0  0  0  0  0  0  0
    2.9847   -4.1324    9.8552 H   0  0  0  0  0  0  0  0  0  0  0  0
   -1.1519   -2.9742    9.7430 H   0  0  0  0  0  0  0  0  0  0  0  0
    3.3137   -2.6188    2.5296 H   0  0  0  0  0  0  0  0  0  0  0  0
    0.2958    0.4668    2.4853 H   0  0  0  0  0  0  0  0  0  0  0  0
    3.3649   -3.0190    7.6865 H   0  0  0  0  0  0  0  0  0  0  0  0
   -0.7887   -1.8514    7.5765 H   0  0  0  0  0  0  0  0  0  0  0  0
   -1.2929   -3.7143    5.9140 H   0  0  0  0  0  0  0  0  0  0  0  0
    0.2813   -3.6940    1.9039 H   0  0  0  0  0  0  0  0  0  0  0  0
   -3.5776   -3.9230    5.0170 H   0  0  0  0  0  0  0  0  0  0  0  0
   -2.0027   -3.9028    1.0054 H   0  0  0  0  0  0  0  0  0  0  0  0
    2.9460    3.5904    8.5114 H   0  0  0  0  0  0  0  0  0  0  0  0
    1.1640   -4.2783    5.3626 H   0  0  0  0  0  0  0  0  0  0  0  0
    1.7627   -3.9590    3.7642 H   0  0  0  0  0  0  0  0  0  0  0  0
   -5.0663   -2.0448    1.2038 H   0  0  0  0  0  0  0  0  0  0  0  0
   -5.6955   -2.0541    2.8062 H   0  0  0  0  0  0  0  0  0  0  0  0
  1  3  2  0  0  0  0
  1  4  1  0  0  0  0
  2  5  2  0  0  0  0
  2  6  1  0  0  0  0
  3  7  1  0  0  0  0
  4  8  2  0  0  0  0
  5  9  1  0  0  0  0
  6 10  2  0  0  0  0
  7 16  2  0  0  0  0
  8 16  1  0  0  0  0
  9 17  2  0  0  0  0
 10 17  1  0  0  0  0
 11 13  1  0  0  0  0
 11 18  2  0  0  0  0
 12 14  2  0  0  0  0
 12 18  1  0  0  0  0
 13 20  2  0  0  0  0
 14 20  1  0  0  0  0
 15 23  2  0  0  0  0
 15 35  1  0  0  0  0
 16 21  1  0  0  0  0
 17 22  1  0  0  0  0
 18 26  1  0  0  0  0
 19 21  1  0  0  0  0
 19 22  2  0  0  0  0
 19 26  1  0  0  0  0
 20 36  1  0  0  0  0
 21 27  2  0  0  0  0
 22 29  1  0  0  0  0
 23 25  1  0  0  0  0
 23 28  1  0  0  0  0
 24 28  2  0  0  0  0
 24 29  1  0  0  0  0
 24 35  1  0  0  0  0
 25 31  2  0  0  0  0
 25 34  1  0  0  0  0
 27 29  1  0  0  0  0
 30 36  1  0  0  0  0
 32 36  2  0  0  0  0
 33 36  2  0  0  0  0
  1 37  1  0  0  0  0
  2 38  1  0  0  0  0
  3 39  1  0  0  0  0
  4 40  1  0  0  0  0
  5 41  1  0  0  0  0
  6 42  1  0  0  0  0
  7 43  1  0  0  0  0
  8 44  1  0  0  0  0
  9 45  1  0  0  0  0
 10 46  1  0  0  0  0
 11 47  1  0  0  0  0
 12 48  1  0  0  0  0
 13 49  1  0  0  0  0
 14 50  1  0  0  0  0
 15 51  1  0  0  0  0
 26 52  1  0  0  0  0
 26 53  1  0  0  0  0
 30 54  1  0  0  0  0
 30 55  1  0  0  0  0
M  CHG  1  34  -1
M  END
> <Molecule Name>
cmp_12

> <mmff94s_NoEstat>
73.99

> <IC50_nm>
139

> <std_dev>
9

$$$$
cmp_13
  -OEChem-06141812483D

 54 58  0     0  0  0  0  0  0999 V2000
    1.8837   -1.0363   -0.1125 C   0  0  0  0  0  0  0  0  0  0  0  0
    2.7074   -1.9104    0.5968 C   0  0  0  0  0  0  0  0  0  0  0  0
    1.0181   -0.1833    0.5722 C   0  0  0  0  0  0  0  0  0  0  0  0
   -0.1200   -2.9988    9.3057 C   0  0  0  0  0  0  0  0  0  0  0  0
    2.6653   -1.9316    1.9909 C   0  0  0  0  0  0  0  0  0  0  0  0
    0.9761   -0.2045    1.9663 C   0  0  0  0  0  0  0  0  0  0  0  0
    0.0590   -2.3609    8.0833 C   0  0  0  0  0  0  0  0  0  0  0  0
   -1.4432   -3.7556    4.8385 C   0  0  0  0  0  0  0  0  0  0  0  0
   -0.5605   -3.7442    2.5895 C   0  0  0  0  0  0  0  0  0  0  0  0
   -2.7367   -3.8738    4.3302 C   0  0  0  0  0  0  0  0  0  0  0  0
   -1.8540   -3.8624    2.0812 C   0  0  0  0  0  0  0  0  0  0  0  0
    0.9789   -3.6145    9.8830 C   0  0  0  0  0  0  0  0  0  0  0  0
    2.3484   -3.0023    8.1430 C   0  0  0  0  0  0  0  0  0  0  0  0
    2.6743    2.5861    8.2190 C   0  0  0  0  0  0  0  0  0  0  0  0
    1.7997   -1.0786    2.6757 C   0  0  0  0  0  0  0  0  0  0  0  0
    1.3137   -2.3582    7.4840 C   0  0  0  0  0  0  0  0  0  0  0  0
   -0.3551   -3.6907    3.9681 C   0  0  0  0  0  0  0  0  0  0  0  0
    1.4283   -2.1939    4.9346 C   0  0  0  0  0  0  0  0  0  0  0  0
   -2.9422   -3.9272    2.9515 C   0  0  0  0  0  0  0  0  0  0  0  0
    1.7561   -1.1004    4.1109 C   0  0  0  0  0  0  0  0  0  0  0  0
    1.5315   -1.7036    6.2135 C   0  0  0  0  0  0  0  0  0  0  0  0
    2.3527    1.5078    9.0164 C   0  0  0  0  0  0  0  0  0  0  0  0
    2.1372    0.5452    7.0576 C   0  0  0  0  0  0  0  0  0  0  0  0
    2.3271    1.5551   10.4512 C   0  0  0  0  0  0  0  0  0  0  0  0
    1.0565   -3.5610    4.5225 C   0  0  0  0  0  0  0  0  0  0  0  0
    2.2129   -3.6327    9.3312 N   0  0  0  0  0  0  0  0  0  0  0  0
    2.0458    0.0016    4.8079 N   0  0  0  0  0  0  0  0  0  0  0  0
    2.0440    0.3367    8.3522 N   0  0  0  0  0  0  0  0  0  0  0  0
    1.9002   -0.3970    6.0831 N   0  0  0  0  0  0  0  0  0  0  0  0
   -5.0006   -2.4343    2.1522 N   0  0  0  0  0  0  0  0  0  0  0  0
    2.5844    2.5487   11.1581 O   0  0  0  0  0  0  0  0  0  0  0  0
   -4.4801   -4.6758    0.9900 O   0  0  0  0  0  0  0  0  0  0  0  0
   -5.4039   -4.6877    3.3340 O   0  0  0  0  0  0  0  0  0  0  0  0
    1.9782    0.3621   11.0238 O   0  5  0  0  0  0  0  0  0  0  0  0
    2.5920    2.1260    6.5689 S   0  0  0  0  0  0  0  0  0  0  0  0
   -4.5610   -4.0774    2.3152 S   0  0  0  0  0  0  0  0  0  0  0  0
    1.9171   -1.0188   -1.1979 H   0  0  0  0  0  0  0  0  0  0  0  0
    3.3823   -2.5737    0.0640 H   0  0  0  0  0  0  0  0  0  0  0  0
    0.3779    0.4981    0.0198 H   0  0  0  0  0  0  0  0  0  0  0  0
   -1.0890   -3.0138    9.7913 H   0  0  0  0  0  0  0  0  0  0  0  0
    3.3137   -2.6188    2.5296 H   0  0  0  0  0  0  0  0  0  0  0  0
    0.2958    0.4668    2.4853 H   0  0  0  0  0  0  0  0  0  0  0  0
   -0.7880   -1.8706    7.6100 H   0  0  0  0  0  0  0  0  0  0  0  0
   -1.2929   -3.7143    5.9140 H   0  0  0  0  0  0  0  0  0  0  0  0
    0.2813   -3.6940    1.9039 H   0  0  0  0  0  0  0  0  0  0  0  0
   -3.5776   -3.9230    5.0170 H   0  0  0  0  0  0  0  0  0  0  0  0
   -2.0027   -3.9028    1.0054 H   0  0  0  0  0  0  0  0  0  0  0  0
    0.8918   -4.1258   10.8360 H   0  0  0  0  0  0  0  0  0  0  0  0
    3.3519   -3.0363    7.7284 H   0  0  0  0  0  0  0  0  0  0  0  0
    2.9460    3.5904    8.5114 H   0  0  0  0  0  0  0  0  0  0  0  0
    1.1640   -4.2783    5.3626 H   0  0  0  0  0  0  0  0  0  0  0  0
    1.7627   -3.9590    3.7642 H   0  0  0  0  0  0  0  0  0  0  0  0
   -5.0663   -2.0448    1.2038 H   0  0  0  0  0  0  0  0  0  0  0  0
   -5.6955   -2.0541    2.8062 H   0  0  0  0  0  0  0  0  0  0  0  0
  1  2  2  0  0  0  0
  1  3  1  0  0  0  0
  2  5  1  0  0  0  0
  3  6  2  0  0  0  0
  4  7  2  0  0  0  0
  4 12  1  0  0  0  0
  5 15  2  0  0  0  0
  6 15  1  0  0  0  0
  7 16  1  0  0  0  0
  8 10  1  0  0  0  0
  8 17  2  0  0  0  0
  9 11  2  0  0  0  0
  9 17  1  0  0  0  0
 10 19  2  0  0  0  0
 11 19  1  0  0  0  0
 12 26  2  0  0  0  0
 13 16  2  0  0  0  0
 13 26  1  0  0  0  0
 14 22  2  0  0  0  0
 14 35  1  0  0  0  0
 15 20  1  0  0  0  0
 16 21  1  0  0  0  0
 17 25  1  0  0  0  0
 18 20  1  0  0  0  0
 18 21  2  0  0  0  0
 18 25  1  0  0  0  0
 19 36  1  0  0  0  0
 20 27  2  0  0  0  0
 21 29  1  0  0  0  0
 22 24  1  0  0  0  0
 22 28  1  0  0  0  0
 23 28  2  0  0  0  0
 23 29  1  0  0  0  0
 23 35  1  0  0  0  0
 24 31  2  0  0  0  0
 24 34  1  0  0  0  0
 27 29  1  0  0  0  0
 30 36  1  0  0  0  0
 32 36  2  0  0  0  0
 33 36  2  0  0  0  0
  1 37  1  0  0  0  0
  2 38  1  0  0  0  0
  3 39  1  0  0  0  0
  4 40  1  0  0  0  0
  5 41  1  0  0  0  0
  6 42  1  0  0  0  0
  7 43  1  0  0  0  0
  8 44  1  0  0  0  0
  9 45  1  0  0  0  0
 10 46  1  0  0  0  0
 11 47  1  0  0  0  0
 12 48  1  0  0  0  0
 13 49  1  0  0  0  0
 14 50  1  0  0  0  0
 25 51  1  0  0  0  0
 25 52  1  0  0  0  0
 30 53  1  0  0  0  0
 30 54  1  0  0  0  0
M  CHG  1  34  -1
M  END
> <Molecule Name>
cmp_13

> <mmff94s_NoEstat>
74.22

> <IC50_nm>
349

> <std_dev>
24

$$$$
cmp_14
  -OEChem-06141812483D

 54 58  0     0  0  0  0  0  0999 V2000
    1.8837   -1.0363   -0.1125 C   0  0  0  0  0  0  0  0  0  0  0  0
    2.7074   -1.9104    0.5968 C   0  0  0  0  0  0  0  0  0  0  0  0
    1.0181   -0.1833    0.5722 C   0  0  0  0  0  0  0  0  0  0  0  0
    2.6653   -1.9316    1.9909 C   0  0  0  0  0  0  0  0  0  0  0  0
    0.9761   -0.2045    1.9663 C   0  0  0  0  0  0  0  0  0  0  0  0
   -1.4432   -3.7556    4.8385 C   0  0  0  0  0  0  0  0  0  0  0  0
   -0.5605   -3.7442    2.5895 C   0  0  0  0  0  0  0  0  0  0  0  0
   -2.7367   -3.8738    4.3302 C   0  0  0  0  0  0  0  0  0  0  0  0
   -1.8540   -3.8624    2.0812 C   0  0  0  0  0  0  0  0  0  0  0  0
    2.3659   -2.9990    8.1285 C   0  0  0  0  0  0  0  0  0  0  0  0
    0.0511   -2.3494    8.0663 C   0  0  0  0  0  0  0  0  0  0  0  0
    2.1056   -3.6114    9.3438 C   0  0  0  0  0  0  0  0  0  0  0  0
   -0.1057   -2.9909    9.2843 C   0  0  0  0  0  0  0  0  0  0  0  0
    2.6743    2.5861    8.2190 C   0  0  0  0  0  0  0  0  0  0  0  0
    1.7997   -1.0786    2.6757 C   0  0  0  0  0  0  0  0  0  0  0  0
    1.3137   -2.3582    7.4840 C   0  0  0  0  0  0  0  0  0  0  0  0
   -0.3551   -3.6907    3.9681 C   0  0  0  0  0  0  0  0  0  0  0  0
    1.4283   -2.1939    4.9346 C   0  0  0  0  0  0  0  0  0  0  0  0
   -2.9422   -3.9272    2.9515 C   0  0  0  0  0  0  0  0  0  0  0  0
    1.7561   -1.1004    4.1109 C   0  0  0  0  0  0  0  0  0  0  0  0
    1.5315   -1.7036    6.2135 C   0  0  0  0  0  0  0  0  0  0  0  0
    2.3527    1.5078    9.0164 C   0  0  0  0  0  0  0  0  0  0  0  0
    2.1372    0.5452    7.0576 C   0  0  0  0  0  0  0  0  0  0  0  0
    2.3271    1.5551   10.4512 C   0  0  0  0  0  0  0  0  0  0  0  0
    1.0565   -3.5610    4.5225 C   0  0  0  0  0  0  0  0  0  0  0  0
    0.8926   -3.6239    9.9405 N   0  0  0  0  0  0  0  0  0  0  0  0
    2.0458    0.0016    4.8079 N   0  0  0  0  0  0  0  0  0  0  0  0
    2.0440    0.3367    8.3522 N   0  0  0  0  0  0  0  0  0  0  0  0
    1.9002   -0.3970    6.0831 N   0  0  0  0  0  0  0  0  0  0  0  0
   -5.0006   -2.4343    2.1522 N   0  0  0  0  0  0  0  0  0  0  0  0
    2.5844    2.5487   11.1581 O   0  0  0  0  0  0  0  0  0  0  0  0
   -4.4801   -4.6758    0.9900 O   0  0  0  0  0  0  0  0  0  0  0  0
   -5.4039   -4.6877    3.3340 O   0  0  0  0  0  0  0  0  0  0  0  0
    1.9782    0.3621   11.0238 O   0  5  0  0  0  0  0  0  0  0  0  0
    2.5920    2.1260    6.5689 S   0  0  0  0  0  0  0  0  0  0  0  0
   -4.5610   -4.0774    2.3152 S   0  0  0  0  0  0  0  0  0  0  0  0
    1.9171   -1.0188   -1.1979 H   0  0  0  0  0  0  0  0  0  0  0  0
    3.3823   -2.5737    0.0640 H   0  0  0  0  0  0  0  0  0  0  0  0
    0.3779    0.4981    0.0198 H   0  0  0  0  0  0  0  0  0  0  0  0
    3.3137   -2.6188    2.5296 H   0  0  0  0  0  0  0  0  0  0  0  0
    0.2958    0.4668    2.4853 H   0  0  0  0  0  0  0  0  0  0  0  0
   -1.2929   -3.7143    5.9140 H   0  0  0  0  0  0  0  0  0  0  0  0
    0.2813   -3.6940    1.9039 H   0  0  0  0  0  0  0  0  0  0  0  0
   -3.5776   -3.9230    5.0170 H   0  0  0  0  0  0  0  0  0  0  0  0
   -2.0027   -3.9028    1.0054 H   0  0  0  0  0  0  0  0  0  0  0  0
    3.3650   -3.0271    7.7055 H   0  0  0  0  0  0  0  0  0  0  0  0
   -0.7944   -1.8598    7.5938 H   0  0  0  0  0  0  0  0  0  0  0  0
    2.8923   -4.1247    9.8869 H   0  0  0  0  0  0  0  0  0  0  0  0
   -1.0705   -3.0129    9.7804 H   0  0  0  0  0  0  0  0  0  0  0  0
    2.9460    3.5904    8.5114 H   0  0  0  0  0  0  0  0  0  0  0  0
    1.1640   -4.2783    5.3626 H   0  0  0  0  0  0  0  0  0  0  0  0
    1.7627   -3.9590    3.7642 H   0  0  0  0  0  0  0  0  0  0  0  0
   -5.0663   -2.0448    1.2038 H   0  0  0  0  0  0  0  0  0  0  0  0
   -5.6955   -2.0541    2.8062 H   0  0  0  0  0  0  0  0  0  0  0  0
  1  2  2  0  0  0  0
  1  3  1  0  0  0  0
  2  4  1  0  0  0  0
  3  5  2  0  0  0  0
  4 15  2  0  0  0  0
  5 15  1  0  0  0  0
  6  8  1  0  0  0  0
  6 17  2  0  0  0  0
  7  9  2  0  0  0  0
  7 17  1  0  0  0  0
  8 19  2  0  0  0  0
  9 19  1  0  0  0  0
 10 12  1  0  0  0  0
 10 16  2  0  0  0  0
 11 13  2  0  0  0  0
 11 16  1  0  0  0  0
 12 26  2  0  0  0  0
 13 26  1  0  0  0  0
 14 22  2  0  0  0  0
 14 35  1  0  0  0  0
 15 20  1  0  0  0  0
 16 21  1  0  0  0  0
 17 25  1  0  0  0  0
 18 20  1  0  0  0  0
 18 21  2  0  0  0  0
 18 25  1  0  0  0  0
 19 36  1  0  0  0  0
 20 27  2  0  0  0  0
 21 29  1  0  0  0  0
 22 24  1  0  0  0  0
 22 28  1  0  0  0  0
 23 28  2  0  0  0  0
 23 29  1  0  0  0  0
 23 35  1  0  0  0  0
 24 31  2  0  0  0  0
 24 34  1  0  0  0  0
 27 29  1  0  0  0  0
 30 36  1  0  0  0  0
 32 36  2  0  0  0  0
 33 36  2  0  0  0  0
  1 37  1  0  0  0  0
  2 38  1  0  0  0  0
  3 39  1  0  0  0  0
  4 40  1  0  0  0  0
  5 41  1  0  0  0  0
  6 42  1  0  0  0  0
  7 43  1  0  0  0  0
  8 44  1  0  0  0  0
  9 45  1  0  0  0  0
 10 46  1  0  0  0  0
 11 47  1  0  0  0  0
 12 48  1  0  0  0  0
 13 49  1  0  0  0  0
 14 50  1  0  0  0  0
 25 51  1  0  0  0  0
 25 52  1  0  0  0  0
 30 53  1  0  0  0  0
 30 54  1  0  0  0  0
M  CHG  1  34  -1
M  END
> <Molecule Name>
cmp_14

> <mmff94s_NoEstat>
74.32

> <IC50_nm>
6230

> <std_dev>
790

$$$$
cmp_15
  -OEChem-06141812483D

 57 61  0     0  0  0  0  0  0999 V2000
    1.3963   -6.4386    3.6916 C   0  0  0  0  0  0  0  0  0  0  0  0
    0.2412   -5.6616    3.7801 C   0  0  0  0  0  0  0  0  0  0  0  0
    2.6299   -5.8982    4.0550 C   0  0  0  0  0  0  0  0  0  0  0  0
    2.8707   -0.3745    5.2929 C   0  0  0  0  0  0  0  0  0  0  0  0
    0.3198   -4.3442    4.2318 C   0  0  0  0  0  0  0  0  0  0  0  0
    2.7084   -4.5809    4.5066 C   0  0  0  0  0  0  0  0  0  0  0  0
    2.7921   -1.6918    4.8413 C   0  0  0  0  0  0  0  0  0  0  0  0
    1.7916    0.1974    5.9669 C   0  0  0  0  0  0  0  0  0  0  0  0
   -1.5909   -0.5126    2.9237 C   0  0  0  0  0  0  0  0  0  0  0  0
   -3.4233   -0.8302    4.4660 C   0  0  0  0  0  0  0  0  0  0  0  0
   -2.0378   -1.5974    2.1694 C   0  0  0  0  0  0  0  0  0  0  0  0
   -3.8702   -1.9151    3.7116 C   0  0  0  0  0  0  0  0  0  0  0  0
    0.5553   -1.8657    5.7377 C   0  0  0  0  0  0  0  0  0  0  0  0
   -2.1299    0.4441   12.2147 C   0  0  0  0  0  0  0  0  0  0  0  0
    1.5534   -3.8038    4.5951 C   0  0  0  0  0  0  0  0  0  0  0  0
    1.6344   -2.4374    5.0637 C   0  0  0  0  0  0  0  0  0  0  0  0
    0.6339   -0.5482    6.1893 C   0  0  0  0  0  0  0  0  0  0  0  0
   -2.2837   -0.1290    4.0721 C   0  0  0  0  0  0  0  0  0  0  0  0
   -1.5526    0.7506    6.3185 C   0  0  0  0  0  0  0  0  0  0  0  0
   -3.1774   -2.2987    2.5633 C   0  0  0  0  0  0  0  0  0  0  0  0
   -0.4760    0.0413    6.8839 C   0  0  0  0  0  0  0  0  0  0  0  0
   -3.1807    1.1359   11.6497 C   0  0  0  0  0  0  0  0  0  0  0  0
   -2.3346    1.1007    7.3920 C   0  0  0  0  0  0  0  0  0  0  0  0
   -2.0686    0.6716    9.8174 C   0  0  0  0  0  0  0  0  0  0  0  0
   -4.2628    1.7012   12.4054 C   0  0  0  0  0  0  0  0  0  0  0  0
   -1.7959    1.0544    4.8960 C   0  0  0  0  0  0  0  0  0  0  0  0
   -0.5629   -0.0542    8.2133 N   0  0  0  0  0  0  0  0  0  0  0  0
   -3.1471    1.2677   10.2752 N   0  0  0  0  0  0  0  0  0  0  0  0
   -1.7033    0.5997    8.4922 N   0  0  0  0  0  0  0  0  0  0  0  0
   -3.4943    1.7872    7.4821 N   0  0  0  0  0  0  0  0  0  0  0  0
   -4.7949   -2.8757    0.5248 N   0  0  0  0  0  0  0  0  0  0  0  0
   -4.4012    1.6480   13.6427 O   0  0  0  0  0  0  0  0  0  0  0  0
   -2.6084   -4.1957    0.8748 O   0  0  0  0  0  0  0  0  0  0  0  0
   -4.5204   -4.5290    2.4814 O   0  0  0  0  0  0  0  0  0  0  0  0
   -5.1872    2.3423   11.6261 O   0  5  0  0  0  0  0  0  0  0  0  0
   -1.0508   -0.0685   10.9841 S   0  0  0  0  0  0  0  0  0  0  0  0
   -3.7381   -3.6552    1.6180 S   0  0  0  0  0  0  0  0  0  0  0  0
    1.3346   -7.4648    3.3415 H   0  0  0  0  0  0  0  0  0  0  0  0
   -0.7195   -6.0827    3.4988 H   0  0  0  0  0  0  0  0  0  0  0  0
    3.5294   -6.5031    3.9877 H   0  0  0  0  0  0  0  0  0  0  0  0
    3.7720    0.2060    5.1200 H   0  0  0  0  0  0  0  0  0  0  0  0
   -0.5897   -3.7514    4.2953 H   0  0  0  0  0  0  0  0  0  0  0  0
    3.6769   -4.1735    4.7869 H   0  0  0  0  0  0  0  0  0  0  0  0
    3.6417   -2.1232    4.3173 H   0  0  0  0  0  0  0  0  0  0  0  0
    1.8684    1.2254    6.3128 H   0  0  0  0  0  0  0  0  0  0  0  0
   -0.7019    0.0275    2.6093 H   0  0  0  0  0  0  0  0  0  0  0  0
   -3.9692   -0.5388    5.3594 H   0  0  0  0  0  0  0  0  0  0  0  0
   -1.4903   -1.8883    1.2767 H   0  0  0  0  0  0  0  0  0  0  0  0
   -4.7590   -2.4546    4.0278 H   0  0  0  0  0  0  0  0  0  0  0  0
   -0.3482   -2.4486    5.9107 H   0  0  0  0  0  0  0  0  0  0  0  0
   -1.9457    0.2191   13.2556 H   0  0  0  0  0  0  0  0  0  0  0  0
   -0.8848    1.4607    4.4087 H   0  0  0  0  0  0  0  0  0  0  0  0
   -2.5285    1.8804    4.7796 H   0  0  0  0  0  0  0  0  0  0  0  0
   -3.9476    2.2072    6.6575 H   0  0  0  0  0  0  0  0  0  0  0  0
   -3.9323    2.0052    8.3890 H   0  0  0  0  0  0  0  0  0  0  0  0
   -5.6862   -2.5171    0.8888 H   0  0  0  0  0  0  0  0  0  0  0  0
   -4.3813   -2.2901   -0.2110 H   0  0  0  0  0  0  0  0  0  0  0  0
  1  2  2  0  0  0  0
  1  3  1  0  0  0  0
  2  5  1  0  0  0  0
  3  6  2  0  0  0  0
  4  7  2  0  0  0  0
  4  8  1  0  0  0  0
  5 15  2  0  0  0  0
  6 15  1  0  0  0  0
  7 16  1  0  0  0  0
  8 17  2  0  0  0  0
  9 11  1  0  0  0  0
  9 18  2  0  0  0  0
 10 12  2  0  0  0  0
 10 18  1  0  0  0  0
 11 20  2  0  0  0  0
 12 20  1  0  0  0  0
 13 16  2  0  0  0  0
 13 17  1  0  0  0  0
 14 22  2  0  0  0  0
 14 36  1  0  0  0  0
 15 16  1  0  0  0  0
 17 21  1  0  0  0  0
 18 26  1  0  0  0  0
 19 21  1  0  0  0  0
 19 23  2  0  0  0  0
 19 26  1  0  0  0  0
 20 37  1  0  0  0  0
 21 27  2  0  0  0  0
 22 25  1  0  0  0  0
 22 28  1  0  0  0  0
 23 29  1  0  0  0  0
 23 30  1  0  0  0  0
 24 28  2  0  0  0  0
 24 29  1  0  0  0  0
 24 36  1  0  0  0  0
 25 32  2  0  0  0  0
 25 35  1  0  0  0  0
 27 29  1  0  0  0  0
 31 37  1  0  0  0  0
 33 37  2  0  0  0  0
 34 37  2  0  0  0  0
  1 38  1  0  0  0  0
  2 39  1  0  0  0  0
  3 40  1  0  0  0  0
  4 41  1  0  0  0  0
  5 42  1  0  0  0  0
  6 43  1  0  0  0  0
  7 44  1  0  0  0  0
  8 45  1  0  0  0  0
  9 46  1  0  0  0  0
 10 47  1  0  0  0  0
 11 48  1  0  0  0  0
 12 49  1  0  0  0  0
 13 50  1  0  0  0  0
 14 51  1  0  0  0  0
 26 52  1  0  0  0  0
 26 53  1  0  0  0  0
 30 54  1  0  0  0  0
 30 55  1  0  0  0  0
 31 56  1  0  0  0  0
 31 57  1  0  0  0  0
M  CHG  1  35  -1
M  END
> <Molecule Name>
cmp_15

> <mmff94s_NoEstat>
83.47

> <IC50_nm>
65

> <std_dev>
11

$$$$
cmp_16
  -OEChem-06141812483D

 58 62  0     0  0  0  0  0  0999 V2000
    1.3970   -6.4392    3.6932 C   0  0  0  0  0  0  0  0  0  0  0  0
    0.2418   -5.6624    3.7817 C   0  0  0  0  0  0  0  0  0  0  0  0
    2.6305   -5.8985    4.0562 C   0  0  0  0  0  0  0  0  0  0  0  0
    2.8705   -0.3743    5.2925 C   0  0  0  0  0  0  0  0  0  0  0  0
    0.3202   -4.3449    4.2329 C   0  0  0  0  0  0  0  0  0  0  0  0
    2.7089   -4.5810    4.5075 C   0  0  0  0  0  0  0  0  0  0  0  0
    2.7921   -1.6918    4.8413 C   0  0  0  0  0  0  0  0  0  0  0  0
    1.7914    0.1975    5.9665 C   0  0  0  0  0  0  0  0  0  0  0  0
   -1.5948   -0.5123    2.9227 C   0  0  0  0  0  0  0  0  0  0  0  0
   -3.4248   -0.8315    4.4674 C   0  0  0  0  0  0  0  0  0  0  0  0
   -2.0422   -1.5969    2.1684 C   0  0  0  0  0  0  0  0  0  0  0  0
   -3.8723   -1.9161    3.7131 C   0  0  0  0  0  0  0  0  0  0  0  0
    0.5554   -1.8658    5.7381 C   0  0  0  0  0  0  0  0  0  0  0  0
   -2.1426    0.4627   12.2118 C   0  0  0  0  0  0  0  0  0  0  0  0
    1.5537   -3.8041    4.5959 C   0  0  0  0  0  0  0  0  0  0  0  0
    1.6346   -2.4376    5.0641 C   0  0  0  0  0  0  0  0  0  0  0  0
    0.6339   -0.5482    6.1893 C   0  0  0  0  0  0  0  0  0  0  0  0
   -2.2860   -0.1296    4.0722 C   0  0  0  0  0  0  0  0  0  0  0  0
   -1.5526    0.7501    6.3178 C   0  0  0  0  0  0  0  0  0  0  0  0
   -3.1810   -2.2988    2.5636 C   0  0  0  0  0  0  0  0  0  0  0  0
   -0.4760    0.0413    6.8839 C   0  0  0  0  0  0  0  0  0  0  0  0
   -3.1905    1.1535   11.6402 C   0  0  0  0  0  0  0  0  0  0  0  0
   -2.3342    1.1020    7.3910 C   0  0  0  0  0  0  0  0  0  0  0  0
   -2.0723    0.6801    9.8139 C   0  0  0  0  0  0  0  0  0  0  0  0
   -4.2746    1.7234   12.3895 C   0  0  0  0  0  0  0  0  0  0  0  0
   -1.7974    1.0538    4.8962 C   0  0  0  0  0  0  0  0  0  0  0  0
   -3.6020    1.8555    7.4614 C   0  0  0  0  0  0  0  0  0  0  0  0
   -0.5625   -0.0524    8.2135 N   0  0  0  0  0  0  0  0  0  0  0  0
   -3.1516    1.2795   10.2653 N   0  0  0  0  0  0  0  0  0  0  0  0
   -1.7027    0.6023    8.4918 N   0  0  0  0  0  0  0  0  0  0  0  0
   -4.8013   -2.8754    0.5271 N   0  0  0  0  0  0  0  0  0  0  0  0
   -4.4176    1.6756   13.6265 O   0  0  0  0  0  0  0  0  0  0  0  0
   -2.6138   -4.1947    0.8733 O   0  0  0  0  0  0  0  0  0  0  0  0
   -4.5233   -4.5296    2.4824 O   0  0  0  0  0  0  0  0  0  0  0  0
   -5.1953    2.3624   11.6042 O   0  5  0  0  0  0  0  0  0  0  0  0
   -4.0761    2.2735    6.2437 F   0  0  0  0  0  0  0  0  0  0  0  0
   -4.6436    1.1521    8.0113 F   0  0  0  0  0  0  0  0  0  0  0  0
   -3.5106    2.9970    8.2148 F   0  0  0  0  0  0  0  0  0  0  0  0
   -1.0597   -0.0563   10.9874 S   0  0  0  0  0  0  0  0  0  0  0  0
   -3.7426   -3.6550    1.6184 S   0  0  0  0  0  0  0  0  0  0  0  0
    1.3355   -7.4655    3.3434 H   0  0  0  0  0  0  0  0  0  0  0  0
   -0.7189   -6.0837    3.5007 H   0  0  0  0  0  0  0  0  0  0  0  0
    3.5302   -6.5032    3.9890 H   0  0  0  0  0  0  0  0  0  0  0  0
    3.7717    0.2063    5.1193 H   0  0  0  0  0  0  0  0  0  0  0  0
   -0.5894   -3.7522    4.2965 H   0  0  0  0  0  0  0  0  0  0  0  0
    3.6773   -4.1733    4.7875 H   0  0  0  0  0  0  0  0  0  0  0  0
    3.6417   -2.1232    4.3173 H   0  0  0  0  0  0  0  0  0  0  0  0
    1.8680    1.2257    6.3121 H   0  0  0  0  0  0  0  0  0  0  0  0
   -0.7064    0.0283    2.6073 H   0  0  0  0  0  0  0  0  0  0  0  0
   -3.9695   -0.5407    5.3618 H   0  0  0  0  0  0  0  0  0  0  0  0
   -1.4960   -1.8871    1.2748 H   0  0  0  0  0  0  0  0  0  0  0  0
   -4.7605   -2.4562    4.0303 H   0  0  0  0  0  0  0  0  0  0  0  0
   -0.3479   -2.4489    5.9115 H   0  0  0  0  0  0  0  0  0  0  0  0
   -1.9625    0.2420   13.2544 H   0  0  0  0  0  0  0  0  0  0  0  0
   -0.8870    1.4603    4.4073 H   0  0  0  0  0  0  0  0  0  0  0  0
   -2.5304    1.8798    4.7801 H   0  0  0  0  0  0  0  0  0  0  0  0
   -5.6922   -2.5174    0.8926 H   0  0  0  0  0  0  0  0  0  0  0  0
   -4.3890   -2.2893   -0.2089 H   0  0  0  0  0  0  0  0  0  0  0  0
  1  2  2  0  0  0  0
  1  3  1  0  0  0  0
  2  5  1  0  0  0  0
  3  6  2  0  0  0  0
  4  7  1  0  0  0  0
  4  8  2  0  0  0  0
  5 15  2  0  0  0  0
  6 15  1  0  0  0  0
  7 16  2  0  0  0  0
  8 17  1  0  0  0  0
  9 11  1  0  0  0  0
  9 18  2  0  0  0  0
 10 12  2  0  0  0  0
 10 18  1  0  0  0  0
 11 20  2  0  0  0  0
 12 20  1  0  0  0  0
 13 16  1  0  0  0  0
 13 17  2  0  0  0  0
 14 22  2  0  0  0  0
 14 39  1  0  0  0  0
 15 16  1  0  0  0  0
 17 21  1  0  0  0  0
 18 26  1  0  0  0  0
 19 21  1  0  0  0  0
 19 23  2  0  0  0  0
 19 26  1  0  0  0  0
 20 40  1  0  0  0  0
 21 28  2  0  0  0  0
 22 25  1  0  0  0  0
 22 29  1  0  0  0  0
 23 27  1  0  0  0  0
 23 30  1  0  0  0  0
 24 29  2  0  0  0  0
 24 30  1  0  0  0  0
 24 39  1  0  0  0  0
 25 32  2  0  0  0  0
 25 35  1  0  0  0  0
 27 36  1  0  0  0  0
 27 37  1  0  0  0  0
 27 38  1  0  0  0  0
 28 30  1  0  0  0  0
 31 40  1  0  0  0  0
 33 40  2  0  0  0  0
 34 40  2  0  0  0  0
  1 41  1  0  0  0  0
  2 42  1  0  0  0  0
  3 43  1  0  0  0  0
  4 44  1  0  0  0  0
  5 45  1  0  0  0  0
  6 46  1  0  0  0  0
  7 47  1  0  0  0  0
  8 48  1  0  0  0  0
  9 49  1  0  0  0  0
 10 50  1  0  0  0  0
 11 51  1  0  0  0  0
 12 52  1  0  0  0  0
 13 53  1  0  0  0  0
 14 54  1  0  0  0  0
 26 55  1  0  0  0  0
 26 56  1  0  0  0  0
 31 57  1  0  0  0  0
 31 58  1  0  0  0  0
M  CHG  1  35  -1
M  END
> <Molecule Name>
cmp_16

> <mmff94s_NoEstat>
83.56

> <IC50_nm>
53

> <std_dev>
1

$$$$
cmp_17
  -OEChem-06141812483D

 52 56  0     0  0  0  0  0  0999 V2000
   -1.6238   -9.5534    8.8958 C   0  0  0  0  0  0  0  0  0  0  0  0
   -0.2637   -9.2604    8.7972 C   0  0  0  0  0  0  0  0  0  0  0  0
   -2.5716   -8.5987    8.5268 C   0  0  0  0  0  0  0  0  0  0  0  0
    0.1488   -8.0126    8.3298 C   0  0  0  0  0  0  0  0  0  0  0  0
   -2.1591   -7.3509    8.0594 C   0  0  0  0  0  0  0  0  0  0  0  0
   -0.4686   -3.4505   11.0044 C   0  0  0  0  0  0  0  0  0  0  0  0
   -0.5759   -5.8452   11.3056 C   0  0  0  0  0  0  0  0  0  0  0  0
   -1.4026   -3.2801   12.0262 C   0  0  0  0  0  0  0  0  0  0  0  0
   -1.5099   -5.6748   12.3275 C   0  0  0  0  0  0  0  0  0  0  0  0
   -0.9985   -2.8003    2.7729 C   0  0  0  0  0  0  0  0  0  0  0  0
   -0.7989   -7.0578    7.9608 C   0  0  0  0  0  0  0  0  0  0  0  0
   -0.0552   -4.7331   10.6441 C   0  0  0  0  0  0  0  0  0  0  0  0
    0.4044   -4.8230    8.1671 C   0  0  0  0  0  0  0  0  0  0  0  0
   -1.9233   -4.3922   12.6878 C   0  0  0  0  0  0  0  0  0  0  0  0
   -0.3746   -5.7730    7.4797 C   0  0  0  0  0  0  0  0  0  0  0  0
   -0.2329   -1.8862    3.4660 C   0  0  0  0  0  0  0  0  0  0  0  0
    0.5302   -3.7785    7.2841 C   0  0  0  0  0  0  0  0  0  0  0  0
   -0.3327   -3.4576    4.9927 C   0  0  0  0  0  0  0  0  0  0  0  0
    0.1643   -0.6122    2.9361 C   0  0  0  0  0  0  0  0  0  0  0  0
    2.7464   -2.5253    7.9057 C   0  0  0  0  0  0  0  0  0  0  0  0
    2.3671   -2.0648    6.5331 C   0  0  0  0  0  0  0  0  0  0  0  0
    1.2838   -2.4688    7.5129 C   0  0  0  0  0  0  0  0  0  0  0  0
    0.9635   -4.9195    9.5284 C   0  0  0  0  0  0  0  0  0  0  0  0
   -0.7195   -5.3678    6.2546 N   0  0  0  0  0  0  0  0  0  0  0  0
    0.1494   -2.2612    4.7392 N   0  0  0  0  0  0  0  0  0  0  0  0
   -0.1547   -4.1516    6.1653 N   0  0  0  0  0  0  0  0  0  0  0  0
   -4.5534   -4.2232   13.0862 N   0  0  0  0  0  0  0  0  0  0  0  0
   -0.1185   -0.1656    1.8076 O   0  0  0  0  0  0  0  0  0  0  0  0
   -3.0331   -5.3432   14.8412 O   0  0  0  0  0  0  0  0  0  0  0  0
   -2.9236   -2.8455   14.5294 O   0  0  0  0  0  0  0  0  0  0  0  0
    0.9195    0.1229    3.8090 O   0  5  0  0  0  0  0  0  0  0  0  0
   -1.2545   -4.1903    3.7443 S   0  0  0  0  0  0  0  0  0  0  0  0
   -3.0907   -4.1790   13.9683 S   0  0  0  0  0  0  0  0  0  0  0  0
   -1.9452  -10.5254    9.2587 H   0  0  0  0  0  0  0  0  0  0  0  0
    0.4743  -10.0040    9.0832 H   0  0  0  0  0  0  0  0  0  0  0  0
   -3.6305   -8.8276    8.6025 H   0  0  0  0  0  0  0  0  0  0  0  0
    1.2128   -7.7992    8.2587 H   0  0  0  0  0  0  0  0  0  0  0  0
   -2.9104   -6.6175    7.7757 H   0  0  0  0  0  0  0  0  0  0  0  0
   -0.0686   -2.5782   10.4944 H   0  0  0  0  0  0  0  0  0  0  0  0
   -0.2600   -6.8483   11.0314 H   0  0  0  0  0  0  0  0  0  0  0  0
   -1.7182   -2.2764   12.2988 H   0  0  0  0  0  0  0  0  0  0  0  0
   -1.9094   -6.5483   12.8361 H   0  0  0  0  0  0  0  0  0  0  0  0
   -1.4080   -2.7263    1.7755 H   0  0  0  0  0  0  0  0  0  0  0  0
    3.2097   -3.5001    7.9992 H   0  0  0  0  0  0  0  0  0  0  0  0
    3.1248   -1.7836    8.5988 H   0  0  0  0  0  0  0  0  0  0  0  0
    2.4878   -1.0131    6.3034 H   0  0  0  0  0  0  0  0  0  0  0  0
    2.5722   -2.7290    5.7021 H   0  0  0  0  0  0  0  0  0  0  0  0
    0.6951   -1.6637    7.9473 H   0  0  0  0  0  0  0  0  0  0  0  0
    1.7805   -4.1837    9.6821 H   0  0  0  0  0  0  0  0  0  0  0  0
    1.4735   -5.8928    9.6868 H   0  0  0  0  0  0  0  0  0  0  0  0
   -4.7797   -3.4195   12.4878 H   0  0  0  0  0  0  0  0  0  0  0  0
   -4.8571   -5.1259   12.7013 H   0  0  0  0  0  0  0  0  0  0  0  0
  1  2  2  0  0  0  0
  1  3  1  0  0  0  0
  2  4  1  0  0  0  0
  3  5  2  0  0  0  0
  4 11  2  0  0  0  0
  5 11  1  0  0  0  0
  6  8  1  0  0  0  0
  6 12  2  0  0  0  0
  7  9  2  0  0  0  0
  7 12  1  0  0  0  0
  8 14  2  0  0  0  0
  9 14  1  0  0  0  0
 10 16  2  0  0  0  0
 10 32  1  0  0  0  0
 11 15  1  0  0  0  0
 12 23  1  0  0  0  0
 13 15  1  0  0  0  0
 13 17  2  0  0  0  0
 13 23  1  0  0  0  0
 14 33  1  0  0  0  0
 15 24  2  0  0  0  0
 16 19  1  0  0  0  0
 16 25  1  0  0  0  0
 17 22  1  0  0  0  0
 17 26  1  0  0  0  0
 18 25  2  0  0  0  0
 18 26  1  0  0  0  0
 18 32  1  0  0  0  0
 19 28  2  0  0  0  0
 19 31  1  0  0  0  0
 20 21  1  0  0  0  0
 20 22  1  0  0  0  0
 21 22  1  0  0  0  0
 24 26  1  0  0  0  0
 27 33  1  0  0  0  0
 29 33  2  0  0  0  0
 30 33  2  0  0  0  0
  1 34  1  0  0  0  0
  2 35  1  0  0  0  0
  3 36  1  0  0  0  0
  4 37  1  0  0  0  0
  5 38  1  0  0  0  0
  6 39  1  0  0  0  0
  7 40  1  0  0  0  0
  8 41  1  0  0  0  0
  9 42  1  0  0  0  0
 10 43  1  0  0  0  0
 20 44  1  0  0  0  0
 20 45  1  0  0  0  0
 21 46  1  0  0  0  0
 21 47  1  0  0  0  0
 22 48  1  0  0  0  0
 23 49  1  0  0  0  0
 23 50  1  0  0  0  0
 27 51  1  0  0  0  0
 27 52  1  0  0  0  0
M  CHG  1  31  -1
M  END
> <Molecule Name>
cmp_17

> <mmff94s_NoEstat>
61.52

> <IC50_nm>
19

> <std_dev>
1

$$$$
cmp_18
  -OEChem-06141812483D

 50 54  0     0  0  0  0  0  0999 V2000
    1.8849   -1.0358   -0.1124 C   0  0  0  0  0  0  0  0  0  0  0  0
    0.6944   -1.3474    0.5442 C   0  0  0  0  0  0  0  0  0  0  0  0
    3.0329   -0.7457    0.6250 C   0  0  0  0  0  0  0  0  0  0  0  0
    0.6518   -1.3688    1.9382 C   0  0  0  0  0  0  0  0  0  0  0  0
    2.9902   -0.7671    2.0190 C   0  0  0  0  0  0  0  0  0  0  0  0
    3.3463   -4.2221    4.2137 C   0  0  0  0  0  0  0  0  0  0  0  0
    1.5623   -4.9455    2.7539 C   0  0  0  0  0  0  0  0  0  0  0  0
    4.2564   -4.9802    3.4772 C   0  0  0  0  0  0  0  0  0  0  0  0
    2.4724   -5.7037    2.0173 C   0  0  0  0  0  0  0  0  0  0  0  0
    2.6668    2.5510    8.2604 C   0  0  0  0  0  0  0  0  0  0  0  0
    1.7997   -1.0786    2.6757 C   0  0  0  0  0  0  0  0  0  0  0  0
    1.9992   -4.2048    3.8521 C   0  0  0  0  0  0  0  0  0  0  0  0
    1.4288   -2.1967    4.9312 C   0  0  0  0  0  0  0  0  0  0  0  0
    3.8195   -5.7210    2.3790 C   0  0  0  0  0  0  0  0  0  0  0  0
    1.7561   -1.1004    4.1109 C   0  0  0  0  0  0  0  0  0  0  0  0
    2.3444    1.4621    9.0430 C   0  0  0  0  0  0  0  0  0  0  0  0
    1.5318   -1.7103    6.2116 C   0  0  0  0  0  0  0  0  0  0  0  0
    2.1337    0.5251    7.0712 C   0  0  0  0  0  0  0  0  0  0  0  0
    2.3158    1.4906   10.4782 C   0  0  0  0  0  0  0  0  0  0  0  0
   -0.0499   -3.1731    7.7038 C   0  0  0  0  0  0  0  0  0  0  0  0
    0.2689   -1.9449    8.4974 C   0  0  0  0  0  0  0  0  0  0  0  0
    1.2839   -2.4809    7.5079 C   0  0  0  0  0  0  0  0  0  0  0  0
    2.0451   -0.0004    4.8114 N   0  0  0  0  0  0  0  0  0  0  0  0
    2.0379    0.2996    8.3628 N   0  0  0  0  0  0  0  0  0  0  0  0
    1.8997   -0.4031    6.0853 N   0  0  0  0  0  0  0  0  0  0  0  0
    5.4575   -5.5329    0.2846 N   0  0  0  0  0  0  0  0  0  0  0  0
    2.5709    2.4749   11.1986 O   0  0  0  0  0  0  0  0  0  0  0  0
    6.0914   -6.9889    2.3153 O   0  0  0  0  0  0  0  0  0  0  0  0
    4.2334   -7.7427    0.7897 O   0  0  0  0  0  0  0  0  0  0  0  0
    1.9667    0.2899   11.0343 O   0  5  0  0  0  0  0  0  0  0  0  0
    1.0890   -3.4462    4.5883 O   0  0  0  0  0  0  0  0  0  0  0  0
    2.5883    2.1126    6.6042 S   0  0  0  0  0  0  0  0  0  0  0  0
    4.9587   -6.6709    1.4573 S   0  0  0  0  0  0  0  0  0  0  0  0
    1.9186   -1.0202   -1.1979 H   0  0  0  0  0  0  0  0  0  0  0  0
   -0.1992   -1.5745   -0.0297 H   0  0  0  0  0  0  0  0  0  0  0  0
    3.9600   -0.5044    0.1134 H   0  0  0  0  0  0  0  0  0  0  0  0
   -0.2840   -1.6135    2.4355 H   0  0  0  0  0  0  0  0  0  0  0  0
    3.8939   -0.5386    2.5794 H   0  0  0  0  0  0  0  0  0  0  0  0
    3.6927   -3.6464    5.0677 H   0  0  0  0  0  0  0  0  0  0  0  0
    0.5142   -4.9361    2.4674 H   0  0  0  0  0  0  0  0  0  0  0  0
    5.3035   -4.9866    3.7677 H   0  0  0  0  0  0  0  0  0  0  0  0
    2.1214   -6.2774    1.1638 H   0  0  0  0  0  0  0  0  0  0  0  0
    2.9371    3.5516    8.5665 H   0  0  0  0  0  0  0  0  0  0  0  0
   -0.0576   -4.1220    8.2265 H   0  0  0  0  0  0  0  0  0  0  0  0
   -0.7963   -3.0883    6.9231 H   0  0  0  0  0  0  0  0  0  0  0  0
   -0.2609   -1.0332    8.2491 H   0  0  0  0  0  0  0  0  0  0  0  0
    0.4782   -2.0654    9.5535 H   0  0  0  0  0  0  0  0  0  0  0  0
    2.1557   -2.9792    7.9261 H   0  0  0  0  0  0  0  0  0  0  0  0
    6.4081   -5.1503    0.3582 H   0  0  0  0  0  0  0  0  0  0  0  0
    5.1370   -5.6652   -0.6824 H   0  0  0  0  0  0  0  0  0  0  0  0
  1  2  2  0  0  0  0
  1  3  1  0  0  0  0
  2  4  1  0  0  0  0
  3  5  2  0  0  0  0
  4 11  2  0  0  0  0
  5 11  1  0  0  0  0
  6  8  1  0  0  0  0
  6 12  2  0  0  0  0
  7  9  2  0  0  0  0
  7 12  1  0  0  0  0
  8 14  2  0  0  0  0
  9 14  1  0  0  0  0
 10 16  2  0  0  0  0
 10 32  1  0  0  0  0
 11 15  1  0  0  0  0
 12 31  1  0  0  0  0
 13 15  1  0  0  0  0
 13 17  2  0  0  0  0
 13 31  1  0  0  0  0
 14 33  1  0  0  0  0
 15 23  2  0  0  0  0
 16 19  1  0  0  0  0
 16 24  1  0  0  0  0
 17 22  1  0  0  0  0
 17 25  1  0  0  0  0
 18 24  2  0  0  0  0
 18 25  1  0  0  0  0
 18 32  1  0  0  0  0
 19 27  2  0  0  0  0
 19 30  1  0  0  0  0
 20 21  1  0  0  0  0
 20 22  1  0  0  0  0
 21 22  1  0  0  0  0
 23 25  1  0  0  0  0
 26 33  1  0  0  0  0
 28 33  2  0  0  0  0
 29 33  2  0  0  0  0
  1 34  1  0  0  0  0
  2 35  1  0  0  0  0
  3 36  1  0  0  0  0
  4 37  1  0  0  0  0
  5 38  1  0  0  0  0
  6 39  1  0  0  0  0
  7 40  1  0  0  0  0
  8 41  1  0  0  0  0
  9 42  1  0  0  0  0
 10 43  1  0  0  0  0
 20 44  1  0  0  0  0
 20 45  1  0  0  0  0
 21 46  1  0  0  0  0
 21 47  1  0  0  0  0
 22 48  1  0  0  0  0
 26 49  1  0  0  0  0
 26 50  1  0  0  0  0
M  CHG  1  30  -1
M  END
> <Molecule Name>
cmp_18

> <mmff94s_NoEstat>
64.62

> <IC50_nm>
65

> <std_dev>
50

$$$$
cmp_19
  -OEChem-06141812483D

 60 65  0     0  0  0  0  0  0999 V2000
    1.4093   -6.4493    3.7209 C   0  0  0  0  0  0  0  0  0  0  0  0
    0.7076   -6.0560    4.8604 C   0  0  0  0  0  0  0  0  0  0  0  0
    2.1863   -5.5226    3.0258 C   0  0  0  0  0  0  0  0  0  0  0  0
    2.8676   -0.3719    5.2857 C   0  0  0  0  0  0  0  0  0  0  0  0
    0.7827   -4.7359    5.3047 C   0  0  0  0  0  0  0  0  0  0  0  0
    2.2614   -4.2025    3.4700 C   0  0  0  0  0  0  0  0  0  0  0  0
    2.7921   -1.6918    4.8413 C   0  0  0  0  0  0  0  0  0  0  0  0
    1.7885    0.2000    5.9598 C   0  0  0  0  0  0  0  0  0  0  0  0
   -2.7374   -1.1337    4.4777 C   0  0  0  0  0  0  0  0  0  0  0  0
   -1.3203    0.0100    2.8901 C   0  0  0  0  0  0  0  0  0  0  0  0
   -2.8872   -2.1921    3.5817 C   0  0  0  0  0  0  0  0  0  0  0  0
   -1.4700   -1.0484    1.9940 C   0  0  0  0  0  0  0  0  0  0  0  0
    0.5583   -1.8682    5.7449 C   0  0  0  0  0  0  0  0  0  0  0  0
   -2.1628    0.4935   12.2065 C   0  0  0  0  0  0  0  0  0  0  0  0
    1.5596   -3.8091    4.6095 C   0  0  0  0  0  0  0  0  0  0  0  0
    1.6375   -2.4400    5.0708 C   0  0  0  0  0  0  0  0  0  0  0  0
    0.6339   -0.5482    6.1893 C   0  0  0  0  0  0  0  0  0  0  0  0
   -1.9541   -0.0326    4.1319 C   0  0  0  0  0  0  0  0  0  0  0  0
   -1.5548    0.7435    6.3138 C   0  0  0  0  0  0  0  0  0  0  0  0
   -2.2535   -2.1495    2.3398 C   0  0  0  0  0  0  0  0  0  0  0  0
   -0.4760    0.0413    6.8839 C   0  0  0  0  0  0  0  0  0  0  0  0
   -3.2102    1.1763   11.6245 C   0  0  0  0  0  0  0  0  0  0  0  0
   -2.3379    1.0983    7.3849 C   0  0  0  0  0  0  0  0  0  0  0  0
   -2.0813    0.6930    9.8074 C   0  0  0  0  0  0  0  0  0  0  0  0
   -4.3000    1.7480   12.3641 C   0  0  0  0  0  0  0  0  0  0  0  0
   -3.6667    3.2414    6.6709 C   0  0  0  0  0  0  0  0  0  0  0  0
   -3.7709    3.1523    8.1613 C   0  0  0  0  0  0  0  0  0  0  0  0
   -3.6488    1.8830    7.3424 C   0  0  0  0  0  0  0  0  0  0  0  0
   -0.5626   -0.0457    8.2139 N   0  0  0  0  0  0  0  0  0  0  0  0
   -3.1650    1.2920   10.2489 N   0  0  0  0  0  0  0  0  0  0  0  0
   -1.7051    0.6065    8.4885 N   0  0  0  0  0  0  0  0  0  0  0  0
   -1.1305   -4.4721    1.6696 N   0  0  0  0  0  0  0  0  0  0  0  0
   -4.4489    1.7091   13.6008 O   0  0  0  0  0  0  0  0  0  0  0  0
   -3.6859   -4.1643    1.5263 O   0  0  0  0  0  0  0  0  0  0  0  0
   -2.2061   -2.9751   -0.1301 O   0  0  0  0  0  0  0  0  0  0  0  0
   -5.2190    2.3779   11.5695 O   0  5  0  0  0  0  0  0  0  0  0  0
   -1.8039    1.0257    5.0282 O   0  0  0  0  0  0  0  0  0  0  0  0
   -1.0720   -0.0311   10.9914 S   0  0  0  0  0  0  0  0  0  0  0  0
   -2.4416   -3.4741    1.2175 S   0  0  0  0  0  0  0  0  0  0  0  0
    1.3520   -7.4776    3.3762 H   0  0  0  0  0  0  0  0  0  0  0  0
    0.1040   -6.7778    5.4028 H   0  0  0  0  0  0  0  0  0  0  0  0
    2.7340   -5.8285    2.1392 H   0  0  0  0  0  0  0  0  0  0  0  0
    3.7666    0.2106    5.1073 H   0  0  0  0  0  0  0  0  0  0  0  0
    0.2300   -4.4448    6.1949 H   0  0  0  0  0  0  0  0  0  0  0  0
    2.8716   -3.4914    2.9182 H   0  0  0  0  0  0  0  0  0  0  0  0
    3.6416   -2.1232    4.3171 H   0  0  0  0  0  0  0  0  0  0  0  0
    1.8629    1.2300    6.3001 H   0  0  0  0  0  0  0  0  0  0  0  0
   -3.2330   -1.1729    5.4440 H   0  0  0  0  0  0  0  0  0  0  0  0
   -0.7089    0.8651    2.6151 H   0  0  0  0  0  0  0  0  0  0  0  0
   -3.4998   -3.0449    3.8613 H   0  0  0  0  0  0  0  0  0  0  0  0
   -0.9723   -1.0049    1.0290 H   0  0  0  0  0  0  0  0  0  0  0  0
   -0.3427   -2.4533    5.9234 H   0  0  0  0  0  0  0  0  0  0  0  0
   -1.9871    0.2812   13.2516 H   0  0  0  0  0  0  0  0  0  0  0  0
   -4.5559    3.5240    6.1204 H   0  0  0  0  0  0  0  0  0  0  0  0
   -2.7433    3.6240    6.2529 H   0  0  0  0  0  0  0  0  0  0  0  0
   -2.9169    3.4723    8.7459 H   0  0  0  0  0  0  0  0  0  0  0  0
   -4.7297    3.3722    8.6153 H   0  0  0  0  0  0  0  0  0  0  0  0
   -4.5483    1.2797    7.2419 H   0  0  0  0  0  0  0  0  0  0  0  0
   -1.3400   -5.3500    2.1602 H   0  0  0  0  0  0  0  0  0  0  0  0
   -0.3297   -4.5353    1.0292 H   0  0  0  0  0  0  0  0  0  0  0  0
  1  2  2  0  0  0  0
  1  3  1  0  0  0  0
  2  5  1  0  0  0  0
  3  6  2  0  0  0  0
  4  7  2  0  0  0  0
  4  8  1  0  0  0  0
  5 15  2  0  0  0  0
  6 15  1  0  0  0  0
  7 16  1  0  0  0  0
  8 17  2  0  0  0  0
  9 11  1  0  0  0  0
  9 18  2  0  0  0  0
 10 12  2  0  0  0  0
 10 18  1  0  0  0  0
 11 20  2  0  0  0  0
 12 20  1  0  0  0  0
 13 16  2  0  0  0  0
 13 17  1  0  0  0  0
 14 22  2  0  0  0  0
 14 38  1  0  0  0  0
 15 16  1  0  0  0  0
 17 21  1  0  0  0  0
 18 37  1  0  0  0  0
 19 21  1  0  0  0  0
 19 23  2  0  0  0  0
 19 37  1  0  0  0  0
 20 39  1  0  0  0  0
 21 29  2  0  0  0  0
 22 25  1  0  0  0  0
 22 30  1  0  0  0  0
 23 28  1  0  0  0  0
 23 31  1  0  0  0  0
 24 30  2  0  0  0  0
 24 31  1  0  0  0  0
 24 38  1  0  0  0  0
 25 33  2  0  0  0  0
 25 36  1  0  0  0  0
 26 27  1  0  0  0  0
 26 28  1  0  0  0  0
 27 28  1  0  0  0  0
 29 31  1  0  0  0  0
 32 39  1  0  0  0  0
 34 39  2  0  0  0  0
 35 39  2  0  0  0  0
  1 40  1  0  0  0  0
  2 41  1  0  0  0  0
  3 42  1  0  0  0  0
  4 43  1  0  0  0  0
  5 44  1  0  0  0  0
  6 45  1  0  0  0  0
  7 46  1  0  0  0  0
  8 47  1  0  0  0  0
  9 48  1  0  0  0  0
 10 49  1  0  0  0  0
 11 50  1  0  0  0  0
 12 51  1  0  0  0  0
 13 52  1  0  0  0  0
 14 53  1  0  0  0  0
 26 54  1  0  0  0  0
 26 55  1  0  0  0  0
 27 56  1  0  0  0  0
 27 57  1  0  0  0  0
 28 58  1  0  0  0  0
 32 59  1  0  0  0  0
 32 60  1  0  0  0  0
M  CHG  1  36  -1
M  END
> <Molecule Name>
cmp_19

> <mmff94s_NoEstat>
91.14

> <IC50_nm>
110

> <std_dev>
8

$$$$
cmp_20
  -OEChem-06141812483D

 62 67  0     0  0  0  0  0  0999 V2000
    1.3962   -6.4385    3.6914 C   0  0  0  0  0  0  0  0  0  0  0  0
    0.2412   -5.6615    3.7799 C   0  0  0  0  0  0  0  0  0  0  0  0
    2.6298   -5.8982    4.0548 C   0  0  0  0  0  0  0  0  0  0  0  0
    2.8707   -0.3745    5.2929 C   0  0  0  0  0  0  0  0  0  0  0  0
    0.3197   -4.3442    4.2316 C   0  0  0  0  0  0  0  0  0  0  0  0
    2.7083   -4.5809    4.5065 C   0  0  0  0  0  0  0  0  0  0  0  0
    2.7921   -1.6918    4.8413 C   0  0  0  0  0  0  0  0  0  0  0  0
    1.7916    0.1973    5.9670 C   0  0  0  0  0  0  0  0  0  0  0  0
   -1.5872   -0.5146    2.9244 C   0  0  0  0  0  0  0  0  0  0  0  0
   -3.4214   -0.8311    4.4648 C   0  0  0  0  0  0  0  0  0  0  0  0
   -2.0333   -1.5998    2.1702 C   0  0  0  0  0  0  0  0  0  0  0  0
   -3.8676   -1.9163    3.7105 C   0  0  0  0  0  0  0  0  0  0  0  0
    0.5552   -1.8656    5.7377 C   0  0  0  0  0  0  0  0  0  0  0  0
   -2.1606    0.4648   12.2096 C   0  0  0  0  0  0  0  0  0  0  0  0
    1.5533   -3.8038    4.5949 C   0  0  0  0  0  0  0  0  0  0  0  0
    1.6344   -2.4374    5.0637 C   0  0  0  0  0  0  0  0  0  0  0  0
    0.6339   -0.5482    6.1893 C   0  0  0  0  0  0  0  0  0  0  0  0
   -2.2812   -0.1302    4.0717 C   0  0  0  0  0  0  0  0  0  0  0  0
   -1.5526    0.7506    6.3185 C   0  0  0  0  0  0  0  0  0  0  0  0
   -3.1735   -2.3007    2.5632 C   0  0  0  0  0  0  0  0  0  0  0  0
   -0.4760    0.0413    6.8839 C   0  0  0  0  0  0  0  0  0  0  0  0
   -3.2058    1.1549   11.6321 C   0  0  0  0  0  0  0  0  0  0  0  0
   -2.3345    1.1010    7.3919 C   0  0  0  0  0  0  0  0  0  0  0  0
   -2.0789    0.6793    9.8117 C   0  0  0  0  0  0  0  0  0  0  0  0
   -4.2934    1.7256   12.3756 C   0  0  0  0  0  0  0  0  0  0  0  0
   -3.6563    3.2537    6.6943 C   0  0  0  0  0  0  0  0  0  0  0  0
   -3.7599    3.1542    8.1841 C   0  0  0  0  0  0  0  0  0  0  0  0
   -3.6426    1.8904    7.3560 C   0  0  0  0  0  0  0  0  0  0  0  0
   -1.7942    1.0537    4.8955 C   0  0  0  0  0  0  0  0  0  0  0  0
   -0.5628   -0.0541    8.2133 N   0  0  0  0  0  0  0  0  0  0  0  0
   -3.1604    1.2793   10.2573 N   0  0  0  0  0  0  0  0  0  0  0  0
   -1.7032    0.6000    8.4922 N   0  0  0  0  0  0  0  0  0  0  0  0
   -4.7888   -2.8787    0.5233 N   0  0  0  0  0  0  0  0  0  0  0  0
   -4.4423    1.6793   13.6120 O   0  0  0  0  0  0  0  0  0  0  0  0
   -2.6029   -4.1988    0.8765 O   0  0  0  0  0  0  0  0  0  0  0  0
   -4.5167   -4.5308    2.4811 O   0  0  0  0  0  0  0  0  0  0  0  0
   -5.2104    2.3637   11.5852 O   0  5  0  0  0  0  0  0  0  0  0  0
   -1.0719   -0.0558   10.9910 S   0  0  0  0  0  0  0  0  0  0  0  0
   -3.7333   -3.6577    1.6181 S   0  0  0  0  0  0  0  0  0  0  0  0
    1.3345   -7.4647    3.3412 H   0  0  0  0  0  0  0  0  0  0  0  0
   -0.7196   -6.0825    3.4986 H   0  0  0  0  0  0  0  0  0  0  0  0
    3.5293   -6.5031    3.9875 H   0  0  0  0  0  0  0  0  0  0  0  0
    3.7721    0.2060    5.1201 H   0  0  0  0  0  0  0  0  0  0  0  0
   -0.5898   -3.7513    4.2952 H   0  0  0  0  0  0  0  0  0  0  0  0
    3.6768   -4.1735    4.7868 H   0  0  0  0  0  0  0  0  0  0  0  0
    3.6417   -2.1232    4.3173 H   0  0  0  0  0  0  0  0  0  0  0  0
    1.8684    1.2254    6.3129 H   0  0  0  0  0  0  0  0  0  0  0  0
   -0.6978    0.0252    2.6107 H   0  0  0  0  0  0  0  0  0  0  0  0
   -3.9683   -0.5390    5.3574 H   0  0  0  0  0  0  0  0  0  0  0  0
   -1.4849   -1.8913    1.2783 H   0  0  0  0  0  0  0  0  0  0  0  0
   -4.7568   -2.4555    4.0261 H   0  0  0  0  0  0  0  0  0  0  0  0
   -0.3483   -2.4486    5.9106 H   0  0  0  0  0  0  0  0  0  0  0  0
   -1.9855    0.2452   13.2532 H   0  0  0  0  0  0  0  0  0  0  0  0
   -4.5449    3.5433    6.1465 H   0  0  0  0  0  0  0  0  0  0  0  0
   -2.7319    3.6361    6.2784 H   0  0  0  0  0  0  0  0  0  0  0  0
   -2.9044    3.4671    8.7704 H   0  0  0  0  0  0  0  0  0  0  0  0
   -4.7176    3.3741    8.6403 H   0  0  0  0  0  0  0  0  0  0  0  0
   -4.5443    1.2910    7.2518 H   0  0  0  0  0  0  0  0  0  0  0  0
   -0.8825    1.4595    4.4090 H   0  0  0  0  0  0  0  0  0  0  0  0
   -2.5266    1.8797    4.7778 H   0  0  0  0  0  0  0  0  0  0  0  0
   -5.6805   -2.5198    0.8860 H   0  0  0  0  0  0  0  0  0  0  0  0
   -4.3743   -2.2936   -0.2123 H   0  0  0  0  0  0  0  0  0  0  0  0
  1  2  2  0  0  0  0
  1  3  1  0  0  0  0
  2  5  1  0  0  0  0
  3  6  2  0  0  0  0
  4  7  2  0  0  0  0
  4  8  1  0  0  0  0
  5 15  2  0  0  0  0
  6 15  1  0  0  0  0
  7 16  1  0  0  0  0
  8 17  2  0  0  0  0
  9 11  1  0  0  0  0
  9 18  2  0  0  0  0
 10 12  2  0  0  0  0
 10 18  1  0  0  0  0
 11 20  2  0  0  0  0
 12 20  1  0  0  0  0
 13 16  2  0  0  0  0
 13 17  1  0  0  0  0
 14 22  2  0  0  0  0
 14 38  1  0  0  0  0
 15 16  1  0  0  0  0
 17 21  1  0  0  0  0
 18 29  1  0  0  0  0
 19 21  1  0  0  0  0
 19 23  2  0  0  0  0
 19 29  1  0  0  0  0
 20 39  1  0  0  0  0
 21 30  2  0  0  0  0
 22 25  1  0  0  0  0
 22 31  1  0  0  0  0
 23 28  1  0  0  0  0
 23 32  1  0  0  0  0
 24 31  2  0  0  0  0
 24 32  1  0  0  0  0
 24 38  1  0  0  0  0
 25 34  2  0  0  0  0
 25 37  1  0  0  0  0
 26 27  1  0  0  0  0
 26 28  1  0  0  0  0
 27 28  1  0  0  0  0
 30 32  1  0  0  0  0
 33 39  1  0  0  0  0
 35 39  2  0  0  0  0
 36 39  2  0  0  0  0
  1 40  1  0  0  0  0
  2 41  1  0  0  0  0
  3 42  1  0  0  0  0
  4 43  1  0  0  0  0
  5 44  1  0  0  0  0
  6 45  1  0  0  0  0
  7 46  1  0  0  0  0
  8 47  1  0  0  0  0
  9 48  1  0  0  0  0
 10 49  1  0  0  0  0
 11 50  1  0  0  0  0
 12 51  1  0  0  0  0
 13 52  1  0  0  0  0
 14 53  1  0  0  0  0
 26 54  1  0  0  0  0
 26 55  1  0  0  0  0
 27 56  1  0  0  0  0
 27 57  1  0  0  0  0
 28 58  1  0  0  0  0
 29 59  1  0  0  0  0
 29 60  1  0  0  0  0
 33 61  1  0  0  0  0
 33 62  1  0  0  0  0
M  CHG  1  37  -1
M  END
> <Molecule Name>
cmp_20

> <mmff94s_NoEstat>
87.90

> <IC50_nm>
27

> <std_dev>
1

$$$$
cmp_21
  -OEChem-06141812483D

 55 59  0     0  0  0  0  0  0999 V2000
    1.8837   -1.0363   -0.1125 C   0  0  0  0  0  0  0  0  0  0  0  0
    2.7077   -1.9100    0.5969 C   0  0  0  0  0  0  0  0  0  0  0  0
    1.0178   -0.1836    0.5722 C   0  0  0  0  0  0  0  0  0  0  0  0
    2.6657   -1.9312    1.9909 C   0  0  0  0  0  0  0  0  0  0  0  0
    0.9757   -0.2048    1.9663 C   0  0  0  0  0  0  0  0  0  0  0  0
   -1.4425   -3.7590    4.8473 C   0  0  0  0  0  0  0  0  0  0  0  0
   -0.5621   -3.7536    2.5974 C   0  0  0  0  0  0  0  0  0  0  0  0
   -2.7364   -3.8806    4.3407 C   0  0  0  0  0  0  0  0  0  0  0  0
   -1.8561   -3.8752    2.0908 C   0  0  0  0  0  0  0  0  0  0  0  0
    2.6671    2.5743    8.2351 C   0  0  0  0  0  0  0  0  0  0  0  0
    1.7997   -1.0786    2.6757 C   0  0  0  0  0  0  0  0  0  0  0  0
   -0.3553   -3.6955    3.9756 C   0  0  0  0  0  0  0  0  0  0  0  0
    1.4286   -2.1944    4.9342 C   0  0  0  0  0  0  0  0  0  0  0  0
   -2.9432   -3.9387    2.9625 C   0  0  0  0  0  0  0  0  0  0  0  0
    1.7561   -1.1004    4.1109 C   0  0  0  0  0  0  0  0  0  0  0  0
    2.3449    1.4917    9.0264 C   0  0  0  0  0  0  0  0  0  0  0  0
    1.5311   -1.7043    6.2132 C   0  0  0  0  0  0  0  0  0  0  0  0
    2.1334    0.5390    7.0623 C   0  0  0  0  0  0  0  0  0  0  0  0
    2.3169    1.5316   10.4614 C   0  0  0  0  0  0  0  0  0  0  0  0
    2.5329   -3.7941    9.3581 C   0  0  0  0  0  0  0  0  0  0  0  0
    2.7633   -4.4890    8.0451 C   0  0  0  0  0  0  0  0  0  0  0  0
    2.5869   -2.9963    8.0847 C   0  0  0  0  0  0  0  0  0  0  0  0
    1.0571   -3.5620    4.5282 C   0  0  0  0  0  0  0  0  0  0  0  0
    1.3147   -2.3549    7.5209 C   0  0  0  0  0  0  0  0  0  0  0  0
    2.0448    0.0016    4.8083 N   0  0  0  0  0  0  0  0  0  0  0  0
    2.0383    0.3238    8.3557 N   0  0  0  0  0  0  0  0  0  0  0  0
    1.8990   -0.3975    6.0833 N   0  0  0  0  0  0  0  0  0  0  0  0
   -5.0045   -2.4512    2.1606 N   0  0  0  0  0  0  0  0  0  0  0  0
    2.5724    2.5216   11.1738 O   0  0  0  0  0  0  0  0  0  0  0  0
   -4.4822   -4.6956    1.0050 O   0  0  0  0  0  0  0  0  0  0  0  0
   -5.4034   -4.7013    3.3500 O   0  0  0  0  0  0  0  0  0  0  0  0
    1.9681    0.3354   11.0272 O   0  5  0  0  0  0  0  0  0  0  0  0
    2.5878    2.1228    6.5825 S   0  0  0  0  0  0  0  0  0  0  0  0
   -4.5625   -4.0932    2.3283 S   0  0  0  0  0  0  0  0  0  0  0  0
    1.9171   -1.0188   -1.1979 H   0  0  0  0  0  0  0  0  0  0  0  0
    3.3829   -2.5731    0.0640 H   0  0  0  0  0  0  0  0  0  0  0  0
    0.3773    0.4975    0.0197 H   0  0  0  0  0  0  0  0  0  0  0  0
    3.3143   -2.6182    2.5297 H   0  0  0  0  0  0  0  0  0  0  0  0
    0.2952    0.4662    2.4853 H   0  0  0  0  0  0  0  0  0  0  0  0
   -1.2911   -3.7141    5.9225 H   0  0  0  0  0  0  0  0  0  0  0  0
    0.2788   -3.7044    1.9107 H   0  0  0  0  0  0  0  0  0  0  0  0
   -3.5764   -3.9287    5.0286 H   0  0  0  0  0  0  0  0  0  0  0  0
   -2.0058   -3.9192    1.0153 H   0  0  0  0  0  0  0  0  0  0  0  0
    2.9375    3.5774    8.5331 H   0  0  0  0  0  0  0  0  0  0  0  0
    1.5742   -3.9358    9.8414 H   0  0  0  0  0  0  0  0  0  0  0  0
    3.3711   -3.7130   10.0393 H   0  0  0  0  0  0  0  0  0  0  0  0
    3.7559   -4.8737    7.8457 H   0  0  0  0  0  0  0  0  0  0  0  0
    1.9588   -5.0964    7.6491 H   0  0  0  0  0  0  0  0  0  0  0  0
    3.4625   -2.3818    7.9136 H   0  0  0  0  0  0  0  0  0  0  0  0
    1.1654   -4.2771    5.3707 H   0  0  0  0  0  0  0  0  0  0  0  0
    1.7623   -3.9639    3.7704 H   0  0  0  0  0  0  0  0  0  0  0  0
    0.9279   -1.6335    8.2663 H   0  0  0  0  0  0  0  0  0  0  0  0
    0.5311   -3.1343    7.4540 H   0  0  0  0  0  0  0  0  0  0  0  0
   -5.0718   -2.0648    1.2110 H   0  0  0  0  0  0  0  0  0  0  0  0
   -5.6992   -2.0698    2.8141 H   0  0  0  0  0  0  0  0  0  0  0  0
  1  2  2  0  0  0  0
  1  3  1  0  0  0  0
  2  4  1  0  0  0  0
  3  5  2  0  0  0  0
  4 11  2  0  0  0  0
  5 11  1  0  0  0  0
  6  8  1  0  0  0  0
  6 12  2  0  0  0  0
  7  9  2  0  0  0  0
  7 12  1  0  0  0  0
  8 14  2  0  0  0  0
  9 14  1  0  0  0  0
 10 16  2  0  0  0  0
 10 33  1  0  0  0  0
 11 15  1  0  0  0  0
 12 23  1  0  0  0  0
 13 15  1  0  0  0  0
 13 17  2  0  0  0  0
 13 23  1  0  0  0  0
 14 34  1  0  0  0  0
 15 25  2  0  0  0  0
 16 19  1  0  0  0  0
 16 26  1  0  0  0  0
 17 24  1  0  0  0  0
 17 27  1  0  0  0  0
 18 26  2  0  0  0  0
 18 27  1  0  0  0  0
 18 33  1  0  0  0  0
 19 29  2  0  0  0  0
 19 32  1  0  0  0  0
 20 21  1  0  0  0  0
 20 22  1  0  0  0  0
 21 22  1  0  0  0  0
 22 24  1  0  0  0  0
 25 27  1  0  0  0  0
 28 34  1  0  0  0  0
 30 34  2  0  0  0  0
 31 34  2  0  0  0  0
  1 35  1  0  0  0  0
  2 36  1  0  0  0  0
  3 37  1  0  0  0  0
  4 38  1  0  0  0  0
  5 39  1  0  0  0  0
  6 40  1  0  0  0  0
  7 41  1  0  0  0  0
  8 42  1  0  0  0  0
  9 43  1  0  0  0  0
 10 44  1  0  0  0  0
 20 45  1  0  0  0  0
 20 46  1  0  0  0  0
 21 47  1  0  0  0  0
 21 48  1  0  0  0  0
 22 49  1  0  0  0  0
 23 50  1  0  0  0  0
 23 51  1  0  0  0  0
 24 52  1  0  0  0  0
 24 53  1  0  0  0  0
 28 54  1  0  0  0  0
 28 55  1  0  0  0  0
M  CHG  1  32  -1
M  END
> <Molecule Name>
cmp_21

> <mmff94s_NoEstat>
63.13

> <IC50_nm>
9

> <std_dev>
1

$$$$
cmp_22
  -OEChem-06141812483D

 65 70  0     0  0  0  0  0  0999 V2000
   -8.8204   -7.7584   10.7336 C   0  0  0  0  0  0  0  0  0  0  0  0
   -8.6244   -6.3827   10.6130 C   0  0  0  0  0  0  0  0  0  0  0  0
   -8.5716   -8.5963    9.6465 C   0  0  0  0  0  0  0  0  0  0  0  0
   -7.3520   -6.2105    4.6542 C   0  0  0  0  0  0  0  0  0  0  0  0
   -8.1797   -5.8448    9.4053 C   0  0  0  0  0  0  0  0  0  0  0  0
   -8.1269   -8.0584    8.4388 C   0  0  0  0  0  0  0  0  0  0  0  0
   -7.7965   -6.7484    5.8619 C   0  0  0  0  0  0  0  0  0  0  0  0
   -6.5802   -5.0485    4.6503 C   0  0  0  0  0  0  0  0  0  0  0  0
   -9.3004   -2.2041    7.0471 C   0  0  0  0  0  0  0  0  0  0  0  0
   -7.5942   -0.8950    8.1481 C   0  0  0  0  0  0  0  0  0  0  0  0
  -10.0123   -2.2829    8.2439 C   0  0  0  0  0  0  0  0  0  0  0  0
   -8.3062   -0.9738    9.3450 C   0  0  0  0  0  0  0  0  0  0  0  0
   -6.6977   -4.9623    7.0619 C   0  0  0  0  0  0  0  0  0  0  0  0
    0.0016   -2.0083    6.0602 C   0  0  0  0  0  0  0  0  0  0  0  0
   -7.9309   -6.6826    8.3182 C   0  0  0  0  0  0  0  0  0  0  0  0
   -7.4694   -6.1243    7.0658 C   0  0  0  0  0  0  0  0  0  0  0  0
   -6.2531   -4.4244    5.8541 C   0  0  0  0  0  0  0  0  0  0  0  0
   -8.0913   -1.5101    6.9991 C   0  0  0  0  0  0  0  0  0  0  0  0
   -5.9211   -1.9012    5.7776 C   0  0  0  0  0  0  0  0  0  0  0  0
   -9.5153   -1.6677    9.3929 C   0  0  0  0  0  0  0  0  0  0  0  0
   -5.4581   -3.2287    5.8488 C   0  0  0  0  0  0  0  0  0  0  0  0
   -0.4697   -0.7140    5.9911 C   0  0  0  0  0  0  0  0  0  0  0  0
   -4.7798   -1.1376    5.8038 C   0  0  0  0  0  0  0  0  0  0  0  0
   -2.3922   -1.7682    5.9400 C   0  0  0  0  0  0  0  0  0  0  0  0
    0.3774    0.4452    5.9881 C   0  0  0  0  0  0  0  0  0  0  0  0
   -4.3537    2.3454    4.0867 C   0  0  0  0  0  0  0  0  0  0  0  0
   -5.5907    1.5940    3.6803 C   0  0  0  0  0  0  0  0  0  0  0  0
   -4.4485    0.8649    4.3318 C   0  0  0  0  0  0  0  0  0  0  0  0
   -7.3136   -1.4246    5.6930 C   0  0  0  0  0  0  0  0  0  0  0  0
   -4.5914    0.3262    5.7591 C   0  0  0  0  0  0  0  0  0  0  0  0
   -4.1264   -3.3074    5.9150 N   0  0  0  0  0  0  0  0  0  0  0  0
   -1.8421   -0.5744    5.9218 N   0  0  0  0  0  0  0  0  0  0  0  0
   -3.7428   -2.0198    5.8855 N   0  0  0  0  0  0  0  0  0  0  0  0
  -11.3949   -0.3751   10.7717 N   0  0  0  0  0  0  0  0  0  0  0  0
    1.6223    0.4455    6.0457 O   0  0  0  0  0  0  0  0  0  0  0  0
  -11.2543   -2.9481   10.8454 O   0  0  0  0  0  0  0  0  0  0  0  0
   -9.4767   -1.5829   11.9959 O   0  0  0  0  0  0  0  0  0  0  0  0
   -0.3184    1.6211    5.9117 O   0  5  0  0  0  0  0  0  0  0  0  0
   -1.3184   -3.1031    6.0400 S   0  0  0  0  0  0  0  0  0  0  0  0
  -10.4073   -1.7644   10.8905 S   0  0  0  0  0  0  0  0  0  0  0  0
   -9.1650   -8.1772   11.6745 H   0  0  0  0  0  0  0  0  0  0  0  0
   -8.8164   -5.7304   11.4599 H   0  0  0  0  0  0  0  0  0  0  0  0
   -8.7226   -9.6677    9.7401 H   0  0  0  0  0  0  0  0  0  0  0  0
   -7.6063   -6.6964    3.7169 H   0  0  0  0  0  0  0  0  0  0  0  0
   -8.0314   -4.7702    9.3273 H   0  0  0  0  0  0  0  0  0  0  0  0
   -7.9365   -8.7240    7.6002 H   0  0  0  0  0  0  0  0  0  0  0  0
   -8.3975   -7.6546    5.8483 H   0  0  0  0  0  0  0  0  0  0  0  0
   -6.2412   -4.6416    3.7006 H   0  0  0  0  0  0  0  0  0  0  0  0
   -9.6953   -2.6868    6.1571 H   0  0  0  0  0  0  0  0  0  0  0  0
   -6.6529   -0.3525    8.1203 H   0  0  0  0  0  0  0  0  0  0  0  0
  -10.9531   -2.8265    8.2705 H   0  0  0  0  0  0  0  0  0  0  0  0
   -7.9095   -0.4911   10.2343 H   0  0  0  0  0  0  0  0  0  0  0  0
   -6.4430   -4.4758    8.0023 H   0  0  0  0  0  0  0  0  0  0  0  0
    1.0227   -2.3574    6.1203 H   0  0  0  0  0  0  0  0  0  0  0  0
   -3.6990    2.7003    3.3004 H   0  0  0  0  0  0  0  0  0  0  0  0
   -4.4227    3.0035    4.9442 H   0  0  0  0  0  0  0  0  0  0  0  0
   -6.4891    1.7479    4.2654 H   0  0  0  0  0  0  0  0  0  0  0  0
   -5.7646    1.4458    2.6217 H   0  0  0  0  0  0  0  0  0  0  0  0
   -3.8474    0.2132    3.7094 H   0  0  0  0  0  0  0  0  0  0  0  0
   -7.8835   -1.9776    4.9169 H   0  0  0  0  0  0  0  0  0  0  0  0
   -7.3601   -0.3751    5.3332 H   0  0  0  0  0  0  0  0  0  0  0  0
   -5.4343    0.8521    6.2478 H   0  0  0  0  0  0  0  0  0  0  0  0
   -3.6985    0.6314    6.3384 H   0  0  0  0  0  0  0  0  0  0  0  0
  -12.3987   -0.5106   10.6000 H   0  0  0  0  0  0  0  0  0  0  0  0
  -11.1823    0.4213   11.3848 H   0  0  0  0  0  0  0  0  0  0  0  0
  1  2  2  0  0  0  0
  1  3  1  0  0  0  0
  2  5  1  0  0  0  0
  3  6  2  0  0  0  0
  4  7  1  0  0  0  0
  4  8  2  0  0  0  0
  5 15  2  0  0  0  0
  6 15  1  0  0  0  0
  7 16  2  0  0  0  0
  8 17  1  0  0  0  0
  9 11  1  0  0  0  0
  9 18  2  0  0  0  0
 10 12  2  0  0  0  0
 10 18  1  0  0  0  0
 11 20  2  0  0  0  0
 12 20  1  0  0  0  0
 13 16  1  0  0  0  0
 13 17  2  0  0  0  0
 14 22  2  0  0  0  0
 14 39  1  0  0  0  0
 15 16  1  0  0  0  0
 17 21  1  0  0  0  0
 18 29  1  0  0  0  0
 19 21  1  0  0  0  0
 19 23  2  0  0  0  0
 19 29  1  0  0  0  0
 20 40  1  0  0  0  0
 21 31  2  0  0  0  0
 22 25  1  0  0  0  0
 22 32  1  0  0  0  0
 23 30  1  0  0  0  0
 23 33  1  0  0  0  0
 24 32  2  0  0  0  0
 24 33  1  0  0  0  0
 24 39  1  0  0  0  0
 25 35  2  0  0  0  0
 25 38  1  0  0  0  0
 26 27  1  0  0  0  0
 26 28  1  0  0  0  0
 27 28  1  0  0  0  0
 28 30  1  0  0  0  0
 31 33  1  0  0  0  0
 34 40  1  0  0  0  0
 36 40  2  0  0  0  0
 37 40  2  0  0  0  0
  1 41  1  0  0  0  0
  2 42  1  0  0  0  0
  3 43  1  0  0  0  0
  4 44  1  0  0  0  0
  5 45  1  0  0  0  0
  6 46  1  0  0  0  0
  7 47  1  0  0  0  0
  8 48  1  0  0  0  0
  9 49  1  0  0  0  0
 10 50  1  0  0  0  0
 11 51  1  0  0  0  0
 12 52  1  0  0  0  0
 13 53  1  0  0  0  0
 14 54  1  0  0  0  0
 26 55  1  0  0  0  0
 26 56  1  0  0  0  0
 27 57  1  0  0  0  0
 27 58  1  0  0  0  0
 28 59  1  0  0  0  0
 29 60  1  0  0  0  0
 29 61  1  0  0  0  0
 30 62  1  0  0  0  0
 30 63  1  0  0  0  0
 34 64  1  0  0  0  0
 34 65  1  0  0  0  0
M  CHG  1  38  -1
M  END
> <Molecule Name>
cmp_22

> <mmff94s_NoEstat>
89.60

> <IC50_nm>
32

> <std_dev>
2

$$$$
cmp_23
  -OEChem-06141812483D

 57 61  0     0  0  0  0  0  0999 V2000
    1.3974   -6.4396    3.6943 C   0  0  0  0  0  0  0  0  0  0  0  0
    0.2422   -5.6629    3.7827 C   0  0  0  0  0  0  0  0  0  0  0  0
    2.6310   -5.8987    4.0571 C   0  0  0  0  0  0  0  0  0  0  0  0
    2.8704   -0.3742    5.2922 C   0  0  0  0  0  0  0  0  0  0  0  0
    0.3205   -4.3453    4.2337 C   0  0  0  0  0  0  0  0  0  0  0  0
    2.7092   -4.5811    4.5081 C   0  0  0  0  0  0  0  0  0  0  0  0
    2.7921   -1.6918    4.8413 C   0  0  0  0  0  0  0  0  0  0  0  0
    1.7913    0.1976    5.9662 C   0  0  0  0  0  0  0  0  0  0  0  0
   -1.6017   -0.5067    2.9210 C   0  0  0  0  0  0  0  0  0  0  0  0
   -3.4282   -0.8296    4.4692 C   0  0  0  0  0  0  0  0  0  0  0  0
   -2.0501   -1.5904    2.1659 C   0  0  0  0  0  0  0  0  0  0  0  0
   -3.8767   -1.9133    3.7140 C   0  0  0  0  0  0  0  0  0  0  0  0
    0.5555   -1.8659    5.7384 C   0  0  0  0  0  0  0  0  0  0  0  0
   -2.1503    0.4486   12.2111 C   0  0  0  0  0  0  0  0  0  0  0  0
    1.5540   -3.8044    4.5964 C   0  0  0  0  0  0  0  0  0  0  0  0
    1.6347   -2.4377    5.0644 C   0  0  0  0  0  0  0  0  0  0  0  0
    0.6339   -0.5482    6.1893 C   0  0  0  0  0  0  0  0  0  0  0  0
   -2.2907   -0.1264    4.0727 C   0  0  0  0  0  0  0  0  0  0  0  0
   -1.5529    0.7499    6.3183 C   0  0  0  0  0  0  0  0  0  0  0  0
   -3.1876   -2.2936    2.5624 C   0  0  0  0  0  0  0  0  0  0  0  0
   -0.4760    0.0413    6.8839 C   0  0  0  0  0  0  0  0  0  0  0  0
   -3.1994    1.1373   11.6393 C   0  0  0  0  0  0  0  0  0  0  0  0
   -2.3353    1.0998    7.3915 C   0  0  0  0  0  0  0  0  0  0  0  0
   -2.0762    0.6724    9.8138 C   0  0  0  0  0  0  0  0  0  0  0  0
   -4.2868    1.7016   12.3880 C   0  0  0  0  0  0  0  0  0  0  0  0
   -1.8010    1.0559    4.8976 C   0  0  0  0  0  0  0  0  0  0  0  0
   -0.5630   -0.0541    8.2133 N   0  0  0  0  0  0  0  0  0  0  0  0
   -3.1585    1.2670   10.2647 N   0  0  0  0  0  0  0  0  0  0  0  0
   -1.7039    0.5993    8.4920 N   0  0  0  0  0  0  0  0  0  0  0  0
   -5.2946    2.3797   11.6907 N   0  0  0  0  0  0  0  0  0  0  0  0
   -4.8119   -2.8678    0.5284 N   0  0  0  0  0  0  0  0  0  0  0  0
   -4.3499    1.6193   13.6370 O   0  0  0  0  0  0  0  0  0  0  0  0
   -2.6228   -4.1863    0.8676 O   0  0  0  0  0  0  0  0  0  0  0  0
   -4.5286   -4.5251    2.4804 O   0  0  0  0  0  0  0  0  0  0  0  0
   -3.4748    1.7725    7.4765 O   0  5  0  0  0  0  0  0  0  0  0  0
   -1.0633   -0.0637   10.9874 S   0  0  0  0  0  0  0  0  0  0  0  0
   -3.7504   -3.6486    1.6161 S   0  0  0  0  0  0  0  0  0  0  0  0
    1.3360   -7.4660    3.3447 H   0  0  0  0  0  0  0  0  0  0  0  0
   -0.7185   -6.0844    3.5019 H   0  0  0  0  0  0  0  0  0  0  0  0
    3.5307   -6.5033    3.9899 H   0  0  0  0  0  0  0  0  0  0  0  0
    3.7715    0.2065    5.1188 H   0  0  0  0  0  0  0  0  0  0  0  0
   -0.5892   -3.7527    4.2972 H   0  0  0  0  0  0  0  0  0  0  0  0
    3.6776   -4.1732    4.7879 H   0  0  0  0  0  0  0  0  0  0  0  0
    3.6417   -2.1232    4.3172 H   0  0  0  0  0  0  0  0  0  0  0  0
    1.8678    1.2258    6.3116 H   0  0  0  0  0  0  0  0  0  0  0  0
   -0.7143    0.0350    2.6046 H   0  0  0  0  0  0  0  0  0  0  0  0
   -3.9711   -0.5407    5.3652 H   0  0  0  0  0  0  0  0  0  0  0  0
   -1.5056   -1.8787    1.2706 H   0  0  0  0  0  0  0  0  0  0  0  0
   -4.7638   -2.4544    4.0322 H   0  0  0  0  0  0  0  0  0  0  0  0
   -0.3477   -2.4491    5.9119 H   0  0  0  0  0  0  0  0  0  0  0  0
   -1.9714    0.2257   13.2534 H   0  0  0  0  0  0  0  0  0  0  0  0
   -0.8920    1.4639    4.4075 H   0  0  0  0  0  0  0  0  0  0  0  0
   -2.5348    1.8816    4.7845 H   0  0  0  0  0  0  0  0  0  0  0  0
   -5.2288    2.4530   10.6813 H   0  0  0  0  0  0  0  0  0  0  0  0
   -6.0886    2.8000   12.1629 H   0  0  0  0  0  0  0  0  0  0  0  0
   -5.7022   -2.5109    0.8964 H   0  0  0  0  0  0  0  0  0  0  0  0
   -4.4015   -2.2802   -0.2075 H   0  0  0  0  0  0  0  0  0  0  0  0
  1  2  2  0  0  0  0
  1  3  1  0  0  0  0
  2  5  1  0  0  0  0
  3  6  2  0  0  0  0
  4  7  2  0  0  0  0
  4  8  1  0  0  0  0
  5 15  2  0  0  0  0
  6 15  1  0  0  0  0
  7 16  1  0  0  0  0
  8 17  2  0  0  0  0
  9 11  1  0  0  0  0
  9 18  2  0  0  0  0
 10 12  2  0  0  0  0
 10 18  1  0  0  0  0
 11 20  2  0  0  0  0
 12 20  1  0  0  0  0
 13 16  2  0  0  0  0
 13 17  1  0  0  0  0
 14 22  2  0  0  0  0
 14 36  1  0  0  0  0
 15 16  1  0  0  0  0
 17 21  1  0  0  0  0
 18 26  1  0  0  0  0
 19 21  1  0  0  0  0
 19 23  2  0  0  0  0
 19 26  1  0  0  0  0
 20 37  1  0  0  0  0
 21 27  2  0  0  0  0
 22 25  1  0  0  0  0
 22 28  1  0  0  0  0
 23 29  1  0  0  0  0
 23 35  1  0  0  0  0
 24 28  2  0  0  0  0
 24 29  1  0  0  0  0
 24 36  1  0  0  0  0
 25 30  1  0  0  0  0
 25 32  2  0  0  0  0
 27 29  1  0  0  0  0
 31 37  1  0  0  0  0
 33 37  2  0  0  0  0
 34 37  2  0  0  0  0
  1 38  1  0  0  0  0
  2 39  1  0  0  0  0
  3 40  1  0  0  0  0
  4 41  1  0  0  0  0
  5 42  1  0  0  0  0
  6 43  1  0  0  0  0
  7 44  1  0  0  0  0
  8 45  1  0  0  0  0
  9 46  1  0  0  0  0
 10 47  1  0  0  0  0
 11 48  1  0  0  0  0
 12 49  1  0  0  0  0
 13 50  1  0  0  0  0
 14 51  1  0  0  0  0
 26 52  1  0  0  0  0
 26 53  1  0  0  0  0
 30 54  1  0  0  0  0
 30 55  1  0  0  0  0
 31 56  1  0  0  0  0
 31 57  1  0  0  0  0
M  CHG  1  35  -1
M  END
> <Molecule Name>
cmp_23

> <mmff94s_NoEstat>
82.77

> <IC50_nm>
27700

> <std_dev>
1900

$$$$
cmp_24
  -OEChem-06141812483D

 65 69  0     0  0  0  0  0  0999 V2000
    1.3970   -6.4392    3.6932 C   0  0  0  0  0  0  0  0  0  0  0  0
    0.2418   -5.6624    3.7817 C   0  0  0  0  0  0  0  0  0  0  0  0
    2.6305   -5.8985    4.0562 C   0  0  0  0  0  0  0  0  0  0  0  0
    2.8705   -0.3743    5.2925 C   0  0  0  0  0  0  0  0  0  0  0  0
    0.3202   -4.3449    4.2329 C   0  0  0  0  0  0  0  0  0  0  0  0
    2.7089   -4.5810    4.5075 C   0  0  0  0  0  0  0  0  0  0  0  0
    2.7921   -1.6918    4.8413 C   0  0  0  0  0  0  0  0  0  0  0  0
    1.7914    0.1975    5.9665 C   0  0  0  0  0  0  0  0  0  0  0  0
   -1.5948   -0.5123    2.9227 C   0  0  0  0  0  0  0  0  0  0  0  0
   -3.4248   -0.8315    4.4674 C   0  0  0  0  0  0  0  0  0  0  0  0
   -2.0422   -1.5969    2.1684 C   0  0  0  0  0  0  0  0  0  0  0  0
   -3.8723   -1.9161    3.7131 C   0  0  0  0  0  0  0  0  0  0  0  0
    0.5554   -1.8658    5.7381 C   0  0  0  0  0  0  0  0  0  0  0  0
   -2.1426    0.4627   12.2118 C   0  0  0  0  0  0  0  0  0  0  0  0
    1.5537   -3.8041    4.5959 C   0  0  0  0  0  0  0  0  0  0  0  0
    1.6346   -2.4376    5.0641 C   0  0  0  0  0  0  0  0  0  0  0  0
    0.6339   -0.5482    6.1893 C   0  0  0  0  0  0  0  0  0  0  0  0
   -2.2860   -0.1296    4.0722 C   0  0  0  0  0  0  0  0  0  0  0  0
   -1.5526    0.7501    6.3178 C   0  0  0  0  0  0  0  0  0  0  0  0
   -3.1810   -2.2988    2.5636 C   0  0  0  0  0  0  0  0  0  0  0  0
   -0.4760    0.0413    6.8839 C   0  0  0  0  0  0  0  0  0  0  0  0
   -3.1905    1.1535   11.6402 C   0  0  0  0  0  0  0  0  0  0  0  0
   -2.3342    1.1020    7.3910 C   0  0  0  0  0  0  0  0  0  0  0  0
   -2.0723    0.6801    9.8139 C   0  0  0  0  0  0  0  0  0  0  0  0
   -4.2746    1.7234   12.3895 C   0  0  0  0  0  0  0  0  0  0  0  0
   -7.1897    3.6111   11.1553 C   0  0  0  0  0  0  0  0  0  0  0  0
   -1.7974    1.0538    4.8962 C   0  0  0  0  0  0  0  0  0  0  0  0
   -6.3179    2.9719   12.2150 C   0  0  0  0  0  0  0  0  0  0  0  0
   -3.6020    1.8555    7.4614 C   0  0  0  0  0  0  0  0  0  0  0  0
   -0.5625   -0.0524    8.2135 N   0  0  0  0  0  0  0  0  0  0  0  0
   -3.1516    1.2795   10.2653 N   0  0  0  0  0  0  0  0  0  0  0  0
   -1.7027    0.6023    8.4918 N   0  0  0  0  0  0  0  0  0  0  0  0
   -4.8013   -2.8754    0.5271 N   0  0  0  0  0  0  0  0  0  0  0  0
   -4.3997    1.6645   13.6305 O   0  0  0  0  0  0  0  0  0  0  0  0
   -2.6138   -4.1947    0.8733 O   0  0  0  0  0  0  0  0  0  0  0  0
   -4.5233   -4.5296    2.4824 O   0  0  0  0  0  0  0  0  0  0  0  0
   -5.1882    2.3604   11.5829 O   0  0  0  0  0  0  0  0  0  0  0  0
   -4.0761    2.2735    6.2437 F   0  0  0  0  0  0  0  0  0  0  0  0
   -4.6436    1.1521    8.0113 F   0  0  0  0  0  0  0  0  0  0  0  0
   -3.5106    2.9970    8.2148 F   0  0  0  0  0  0  0  0  0  0  0  0
   -1.0597   -0.0563   10.9874 S   0  0  0  0  0  0  0  0  0  0  0  0
   -3.7426   -3.6550    1.6184 S   0  0  0  0  0  0  0  0  0  0  0  0
    1.3355   -7.4655    3.3434 H   0  0  0  0  0  0  0  0  0  0  0  0
   -0.7189   -6.0837    3.5007 H   0  0  0  0  0  0  0  0  0  0  0  0
    3.5302   -6.5032    3.9890 H   0  0  0  0  0  0  0  0  0  0  0  0
    3.7717    0.2063    5.1193 H   0  0  0  0  0  0  0  0  0  0  0  0
   -0.5894   -3.7522    4.2965 H   0  0  0  0  0  0  0  0  0  0  0  0
    3.6773   -4.1733    4.7875 H   0  0  0  0  0  0  0  0  0  0  0  0
    3.6417   -2.1232    4.3173 H   0  0  0  0  0  0  0  0  0  0  0  0
    1.8680    1.2257    6.3121 H   0  0  0  0  0  0  0  0  0  0  0  0
   -0.7064    0.0283    2.6073 H   0  0  0  0  0  0  0  0  0  0  0  0
   -3.9695   -0.5407    5.3618 H   0  0  0  0  0  0  0  0  0  0  0  0
   -1.4960   -1.8871    1.2748 H   0  0  0  0  0  0  0  0  0  0  0  0
   -4.7605   -2.4562    4.0303 H   0  0  0  0  0  0  0  0  0  0  0  0
   -0.3479   -2.4489    5.9115 H   0  0  0  0  0  0  0  0  0  0  0  0
   -1.9625    0.2420   13.2544 H   0  0  0  0  0  0  0  0  0  0  0  0
   -6.6378    4.3801   10.6076 H   0  0  0  0  0  0  0  0  0  0  0  0
   -7.5476    2.8590   10.4446 H   0  0  0  0  0  0  0  0  0  0  0  0
   -8.0758    4.0677   11.6086 H   0  0  0  0  0  0  0  0  0  0  0  0
   -0.8870    1.4603    4.4073 H   0  0  0  0  0  0  0  0  0  0  0  0
   -2.5304    1.8798    4.7801 H   0  0  0  0  0  0  0  0  0  0  0  0
   -6.8758    2.2039   12.7590 H   0  0  0  0  0  0  0  0  0  0  0  0
   -5.9605    3.7248   12.9237 H   0  0  0  0  0  0  0  0  0  0  0  0
   -5.6922   -2.5174    0.8926 H   0  0  0  0  0  0  0  0  0  0  0  0
   -4.3890   -2.2893   -0.2089 H   0  0  0  0  0  0  0  0  0  0  0  0
  1  2  2  0  0  0  0
  1  3  1  0  0  0  0
  2  5  1  0  0  0  0
  3  6  2  0  0  0  0
  4  7  1  0  0  0  0
  4  8  2  0  0  0  0
  5 15  2  0  0  0  0
  6 15  1  0  0  0  0
  7 16  2  0  0  0  0
  8 17  1  0  0  0  0
  9 11  1  0  0  0  0
  9 18  2  0  0  0  0
 10 12  2  0  0  0  0
 10 18  1  0  0  0  0
 11 20  2  0  0  0  0
 12 20  1  0  0  0  0
 13 16  1  0  0  0  0
 13 17  2  0  0  0  0
 14 22  2  0  0  0  0
 14 41  1  0  0  0  0
 15 16  1  0  0  0  0
 17 21  1  0  0  0  0
 18 27  1  0  0  0  0
 19 21  1  0  0  0  0
 19 23  2  0  0  0  0
 19 27  1  0  0  0  0
 20 42  1  0  0  0  0
 21 30  2  0  0  0  0
 22 25  1  0  0  0  0
 22 31  1  0  0  0  0
 23 29  1  0  0  0  0
 23 32  1  0  0  0  0
 24 31  2  0  0  0  0
 24 32  1  0  0  0  0
 24 41  1  0  0  0  0
 25 34  2  0  0  0  0
 25 37  1  0  0  0  0
 26 28  1  0  0  0  0
 28 37  1  0  0  0  0
 29 38  1  0  0  0  0
 29 39  1  0  0  0  0
 29 40  1  0  0  0  0
 30 32  1  0  0  0  0
 33 42  1  0  0  0  0
 35 42  2  0  0  0  0
 36 42  2  0  0  0  0
  1 43  1  0  0  0  0
  2 44  1  0  0  0  0
  3 45  1  0  0  0  0
  4 46  1  0  0  0  0
  5 47  1  0  0  0  0
  6 48  1  0  0  0  0
  7 49  1  0  0  0  0
  8 50  1  0  0  0  0
  9 51  1  0  0  0  0
 10 52  1  0  0  0  0
 11 53  1  0  0  0  0
 12 54  1  0  0  0  0
 13 55  1  0  0  0  0
 14 56  1  0  0  0  0
 26 57  1  0  0  0  0
 26 58  1  0  0  0  0
 26 59  1  0  0  0  0
 27 60  1  0  0  0  0
 27 61  1  0  0  0  0
 28 62  1  0  0  0  0
 28 63  1  0  0  0  0
 33 64  1  0  0  0  0
 33 65  1  0  0  0  0
M  END
> <Molecule Name>
cmp_24

> <mmff94s_NoEstat>
84.64

> <IC50_nm>
57000

$$$$
cmp_25
  -OEChem-06141812483D

 50 53  0     0  0  0  0  0  0999 V2000
    1.8837   -1.0363   -0.1125 C   0  0  0  0  0  0  0  0  0  0  0  0
    2.7077   -1.9100    0.5969 C   0  0  0  0  0  0  0  0  0  0  0  0
    1.0178   -0.1836    0.5722 C   0  0  0  0  0  0  0  0  0  0  0  0
    2.6657   -1.9312    1.9909 C   0  0  0  0  0  0  0  0  0  0  0  0
    0.9757   -0.2048    1.9663 C   0  0  0  0  0  0  0  0  0  0  0  0
   -1.4425   -3.7590    4.8473 C   0  0  0  0  0  0  0  0  0  0  0  0
   -0.5621   -3.7536    2.5974 C   0  0  0  0  0  0  0  0  0  0  0  0
   -2.7364   -3.8806    4.3407 C   0  0  0  0  0  0  0  0  0  0  0  0
   -1.8561   -3.8752    2.0908 C   0  0  0  0  0  0  0  0  0  0  0  0
    2.6683    2.5746    8.2341 C   0  0  0  0  0  0  0  0  0  0  0  0
    1.7997   -1.0786    2.6757 C   0  0  0  0  0  0  0  0  0  0  0  0
   -0.3553   -3.6955    3.9756 C   0  0  0  0  0  0  0  0  0  0  0  0
    1.4286   -2.1944    4.9342 C   0  0  0  0  0  0  0  0  0  0  0  0
   -2.9432   -3.9387    2.9625 C   0  0  0  0  0  0  0  0  0  0  0  0
    1.7561   -1.1004    4.1109 C   0  0  0  0  0  0  0  0  0  0  0  0
    2.3458    1.4924    9.0260 C   0  0  0  0  0  0  0  0  0  0  0  0
    1.5311   -1.7043    6.2132 C   0  0  0  0  0  0  0  0  0  0  0  0
    2.1334    0.5390    7.0623 C   0  0  0  0  0  0  0  0  0  0  0  0
    1.0571   -3.5620    4.5282 C   0  0  0  0  0  0  0  0  0  0  0  0
    2.3070    1.4851   10.5017 C   0  0  0  0  0  0  0  0  0  0  0  0
    1.3147   -2.3549    7.5209 C   0  0  0  0  0  0  0  0  0  0  0  0
    2.0448    0.0016    4.8083 N   0  0  0  0  0  0  0  0  0  0  0  0
    2.0384    0.3244    8.3558 N   0  0  0  0  0  0  0  0  0  0  0  0
    1.8990   -0.3975    6.0833 N   0  0  0  0  0  0  0  0  0  0  0  0
   -5.0045   -2.4512    2.1606 N   0  0  0  0  0  0  0  0  0  0  0  0
   -4.4822   -4.6956    1.0050 O   0  0  0  0  0  0  0  0  0  0  0  0
   -5.4034   -4.7013    3.3500 O   0  0  0  0  0  0  0  0  0  0  0  0
    0.9531    1.4999   10.9539 O   0  0  0  0  0  0  0  0  0  0  0  0
    0.9490   -3.6747    7.4388 F   0  0  0  0  0  0  0  0  0  0  0  0
    2.4174   -2.3554    8.3372 F   0  0  0  0  0  0  0  0  0  0  0  0
    0.3270   -1.7609    8.2628 F   0  0  0  0  0  0  0  0  0  0  0  0
    2.5885    2.1224    6.5817 S   0  0  0  0  0  0  0  0  0  0  0  0
   -4.5625   -4.0932    2.3283 S   0  0  0  0  0  0  0  0  0  0  0  0
    1.9171   -1.0188   -1.1979 H   0  0  0  0  0  0  0  0  0  0  0  0
    3.3829   -2.5731    0.0640 H   0  0  0  0  0  0  0  0  0  0  0  0
    0.3773    0.4975    0.0197 H   0  0  0  0  0  0  0  0  0  0  0  0
    3.3143   -2.6182    2.5297 H   0  0  0  0  0  0  0  0  0  0  0  0
    0.2952    0.4662    2.4853 H   0  0  0  0  0  0  0  0  0  0  0  0
   -1.2911   -3.7141    5.9225 H   0  0  0  0  0  0  0  0  0  0  0  0
    0.2788   -3.7044    1.9107 H   0  0  0  0  0  0  0  0  0  0  0  0
   -3.5764   -3.9287    5.0286 H   0  0  0  0  0  0  0  0  0  0  0  0
   -2.0058   -3.9192    1.0153 H   0  0  0  0  0  0  0  0  0  0  0  0
    2.9419    3.5763    8.5342 H   0  0  0  0  0  0  0  0  0  0  0  0
    1.1654   -4.2771    5.3707 H   0  0  0  0  0  0  0  0  0  0  0  0
    1.7623   -3.9639    3.7704 H   0  0  0  0  0  0  0  0  0  0  0  0
    2.7977    0.5916   10.9263 H   0  0  0  0  0  0  0  0  0  0  0  0
    2.8211    2.3625   10.9317 H   0  0  0  0  0  0  0  0  0  0  0  0
   -5.0718   -2.0648    1.2110 H   0  0  0  0  0  0  0  0  0  0  0  0
   -5.6992   -2.0698    2.8141 H   0  0  0  0  0  0  0  0  0  0  0  0
    0.9877    1.4943   11.9224 H   0  0  0  0  0  0  0  0  0  0  0  0
  1  2  2  0  0  0  0
  1  3  1  0  0  0  0
  2  4  1  0  0  0  0
  3  5  2  0  0  0  0
  4 11  2  0  0  0  0
  5 11  1  0  0  0  0
  6  8  1  0  0  0  0
  6 12  2  0  0  0  0
  7  9  2  0  0  0  0
  7 12  1  0  0  0  0
  8 14  2  0  0  0  0
  9 14  1  0  0  0  0
 10 16  2  0  0  0  0
 10 32  1  0  0  0  0
 11 15  1  0  0  0  0
 12 19  1  0  0  0  0
 13 15  1  0  0  0  0
 13 17  2  0  0  0  0
 13 19  1  0  0  0  0
 14 33  1  0  0  0  0
 15 22  2  0  0  0  0
 16 20  1  0  0  0  0
 16 23  1  0  0  0  0
 17 21  1  0  0  0  0
 17 24  1  0  0  0  0
 18 23  2  0  0  0  0
 18 24  1  0  0  0  0
 18 32  1  0  0  0  0
 20 28  1  0  0  0  0
 21 29  1  0  0  0  0
 21 30  1  0  0  0  0
 21 31  1  0  0  0  0
 22 24  1  0  0  0  0
 25 33  1  0  0  0  0
 26 33  2  0  0  0  0
 27 33  2  0  0  0  0
  1 34  1  0  0  0  0
  2 35  1  0  0  0  0
  3 36  1  0  0  0  0
  4 37  1  0  0  0  0
  5 38  1  0  0  0  0
  6 39  1  0  0  0  0
  7 40  1  0  0  0  0
  8 41  1  0  0  0  0
  9 42  1  0  0  0  0
 10 43  1  0  0  0  0
 19 44  1  0  0  0  0
 19 45  1  0  0  0  0
 20 46  1  0  0  0  0
 20 47  1  0  0  0  0
 25 48  1  0  0  0  0
 25 49  1  0  0  0  0
 28 50  1  0  0  0  0
M  END
> <Molecule Name>
cmp_25

> <mmff94s_NoEstat>
52.72

> <IC50_nm>
25500

> <std_dev>
6200

$$$$
cmp_26
  -OEChem-06141812483D

 57 62  0     0  0  0  0  0  0999 V2000
    1.3974   -6.4396    3.6943 C   0  0  0  0  0  0  0  0  0  0  0  0
    0.2422   -5.6629    3.7827 C   0  0  0  0  0  0  0  0  0  0  0  0
    2.6310   -5.8987    4.0571 C   0  0  0  0  0  0  0  0  0  0  0  0
    2.8704   -0.3742    5.2922 C   0  0  0  0  0  0  0  0  0  0  0  0
    0.3205   -4.3453    4.2337 C   0  0  0  0  0  0  0  0  0  0  0  0
    2.7092   -4.5811    4.5081 C   0  0  0  0  0  0  0  0  0  0  0  0
    2.7921   -1.6918    4.8413 C   0  0  0  0  0  0  0  0  0  0  0  0
    1.7913    0.1976    5.9662 C   0  0  0  0  0  0  0  0  0  0  0  0
   -1.6017   -0.5067    2.9210 C   0  0  0  0  0  0  0  0  0  0  0  0
   -3.4282   -0.8296    4.4692 C   0  0  0  0  0  0  0  0  0  0  0  0
   -2.0501   -1.5904    2.1659 C   0  0  0  0  0  0  0  0  0  0  0  0
   -3.8767   -1.9133    3.7140 C   0  0  0  0  0  0  0  0  0  0  0  0
    0.5555   -1.8659    5.7384 C   0  0  0  0  0  0  0  0  0  0  0  0
   -2.1504    0.4473   12.2110 C   0  0  0  0  0  0  0  0  0  0  0  0
    1.5540   -3.8044    4.5964 C   0  0  0  0  0  0  0  0  0  0  0  0
    1.6347   -2.4377    5.0644 C   0  0  0  0  0  0  0  0  0  0  0  0
    0.6339   -0.5482    6.1893 C   0  0  0  0  0  0  0  0  0  0  0  0
   -2.2907   -0.1264    4.0727 C   0  0  0  0  0  0  0  0  0  0  0  0
   -1.5529    0.7499    6.3183 C   0  0  0  0  0  0  0  0  0  0  0  0
   -3.1876   -2.2936    2.5624 C   0  0  0  0  0  0  0  0  0  0  0  0
   -3.1994    1.1365   11.6395 C   0  0  0  0  0  0  0  0  0  0  0  0
   -0.4760    0.0413    6.8839 C   0  0  0  0  0  0  0  0  0  0  0  0
   -2.3353    1.0998    7.3915 C   0  0  0  0  0  0  0  0  0  0  0  0
   -4.3022    1.7043   12.4367 C   0  0  0  0  0  0  0  0  0  0  0  0
   -2.0762    0.6724    9.8138 C   0  0  0  0  0  0  0  0  0  0  0  0
   -1.8010    1.0559    4.8976 C   0  0  0  0  0  0  0  0  0  0  0  0
   -3.1584    1.2670   10.2650 N   0  0  0  0  0  0  0  0  0  0  0  0
   -0.5630   -0.0541    8.2133 N   0  0  0  0  0  0  0  0  0  0  0  0
   -4.4274    1.6326   13.7419 N   0  0  0  0  0  0  0  0  0  0  0  0
   -5.5951    2.2979   14.0400 N   0  0  0  0  0  0  0  0  0  0  0  0
   -6.1710    2.7671   12.9399 N   0  0  0  0  0  0  0  0  0  0  0  0
   -5.3611    2.3947   11.9390 N   0  5  0  0  0  0  0  0  0  0  0  0
   -1.7039    0.5993    8.4920 N   0  0  0  0  0  0  0  0  0  0  0  0
   -4.8119   -2.8678    0.5284 N   0  0  0  0  0  0  0  0  0  0  0  0
   -2.6228   -4.1863    0.8676 O   0  0  0  0  0  0  0  0  0  0  0  0
   -4.5286   -4.5251    2.4804 O   0  0  0  0  0  0  0  0  0  0  0  0
   -3.4748    1.7725    7.4765 O   0  5  0  0  0  0  0  0  0  0  0  0
   -1.0635   -0.0645   10.9870 S   0  0  0  0  0  0  0  0  0  0  0  0
   -3.7504   -3.6486    1.6161 S   0  0  0  0  0  0  0  0  0  0  0  0
    1.3360   -7.4660    3.3447 H   0  0  0  0  0  0  0  0  0  0  0  0
   -0.7185   -6.0844    3.5019 H   0  0  0  0  0  0  0  0  0  0  0  0
    3.5307   -6.5033    3.9899 H   0  0  0  0  0  0  0  0  0  0  0  0
    3.7715    0.2065    5.1188 H   0  0  0  0  0  0  0  0  0  0  0  0
   -0.5892   -3.7527    4.2972 H   0  0  0  0  0  0  0  0  0  0  0  0
    3.6776   -4.1732    4.7879 H   0  0  0  0  0  0  0  0  0  0  0  0
    3.6417   -2.1232    4.3172 H   0  0  0  0  0  0  0  0  0  0  0  0
    1.8678    1.2258    6.3116 H   0  0  0  0  0  0  0  0  0  0  0  0
   -0.7143    0.0350    2.6046 H   0  0  0  0  0  0  0  0  0  0  0  0
   -3.9711   -0.5407    5.3652 H   0  0  0  0  0  0  0  0  0  0  0  0
   -1.5056   -1.8787    1.2706 H   0  0  0  0  0  0  0  0  0  0  0  0
   -4.7638   -2.4544    4.0322 H   0  0  0  0  0  0  0  0  0  0  0  0
   -0.3477   -2.4491    5.9119 H   0  0  0  0  0  0  0  0  0  0  0  0
   -1.9690    0.2222   13.2530 H   0  0  0  0  0  0  0  0  0  0  0  0
   -0.8920    1.4639    4.4075 H   0  0  0  0  0  0  0  0  0  0  0  0
   -2.5348    1.8816    4.7845 H   0  0  0  0  0  0  0  0  0  0  0  0
   -5.7022   -2.5109    0.8964 H   0  0  0  0  0  0  0  0  0  0  0  0
   -4.4015   -2.2802   -0.2075 H   0  0  0  0  0  0  0  0  0  0  0  0
  1  2  2  0  0  0  0
  1  3  1  0  0  0  0
  2  5  1  0  0  0  0
  3  6  2  0  0  0  0
  4  7  2  0  0  0  0
  4  8  1  0  0  0  0
  5 15  2  0  0  0  0
  6 15  1  0  0  0  0
  7 16  1  0  0  0  0
  8 17  2  0  0  0  0
  9 11  1  0  0  0  0
  9 18  2  0  0  0  0
 10 12  2  0  0  0  0
 10 18  1  0  0  0  0
 11 20  2  0  0  0  0
 12 20  1  0  0  0  0
 13 16  2  0  0  0  0
 13 17  1  0  0  0  0
 14 21  2  0  0  0  0
 14 38  1  0  0  0  0
 15 16  1  0  0  0  0
 17 22  1  0  0  0  0
 18 26  1  0  0  0  0
 19 22  1  0  0  0  0
 19 23  2  0  0  0  0
 19 26  1  0  0  0  0
 20 39  1  0  0  0  0
 21 24  1  0  0  0  0
 21 27  1  0  0  0  0
 22 28  2  0  0  0  0
 23 33  1  0  0  0  0
 23 37  1  0  0  0  0
 24 29  2  0  0  0  0
 24 32  1  0  0  0  0
 25 27  2  0  0  0  0
 25 33  1  0  0  0  0
 25 38  1  0  0  0  0
 28 33  1  0  0  0  0
 29 30  1  0  0  0  0
 30 31  2  0  0  0  0
 31 32  1  0  0  0  0
 34 39  1  0  0  0  0
 35 39  2  0  0  0  0
 36 39  2  0  0  0  0
  1 40  1  0  0  0  0
  2 41  1  0  0  0  0
  3 42  1  0  0  0  0
  4 43  1  0  0  0  0
  5 44  1  0  0  0  0
  6 45  1  0  0  0  0
  7 46  1  0  0  0  0
  8 47  1  0  0  0  0
  9 48  1  0  0  0  0
 10 49  1  0  0  0  0
 11 50  1  0  0  0  0
 12 51  1  0  0  0  0
 13 52  1  0  0  0  0
 14 53  1  0  0  0  0
 26 54  1  0  0  0  0
 26 55  1  0  0  0  0
 34 56  1  0  0  0  0
 34 57  1  0  0  0  0
M  CHG  2  32  -1  37  -1
M  END
> <Molecule Name>
cmp_26

> <mmff94s_NoEstat>
78.42

> <IC50_nm>
57000

$$$$
