cmp_1
  -OEChem-07021816373D

 71 75  0     0  0  0  0  0  0999 V2000
   -1.6773    1.6439    2.4698 C   0  0  0  0  0  0  0  0  0  0  0  0
   -0.7036    1.3640    1.5041 C   0  0  0  0  0  0  0  0  0  0  0  0
   -6.8638   -2.2940    8.4834 C   0  0  0  0  0  0  0  0  0  0  0  0
   -6.5618   -3.1572    7.4032 C   0  0  0  0  0  0  0  0  0  0  0  0
   -5.3940    3.4571    9.3024 C   0  0  0  0  0  0  0  0  0  0  0  0
   -4.8444    1.4110   10.4637 C   0  0  0  0  0  0  0  0  0  0  0  0
   -2.7304    0.7292    2.6692 C   0  0  0  0  0  0  0  0  0  0  0  0
   -1.8022   -0.7245    0.9247 C   0  0  0  0  0  0  0  0  0  0  0  0
   -1.9210   -1.9434    0.1756 C   0  0  0  0  0  0  0  0  0  0  0  0
   -6.2025    3.8461   10.3703 C   0  0  0  0  0  0  0  0  0  0  0  0
   -5.6529    1.8000   11.5317 C   0  0  0  0  0  0  0  0  0  0  0  0
   -3.8586    0.6897    3.5356 C   0  0  0  0  0  0  0  0  0  0  0  0
   -2.7685   -0.4315    1.8936 C   0  0  0  0  0  0  0  0  0  0  0  0
   -4.7150    2.2395    9.3490 C   0  0  0  0  0  0  0  0  0  0  0  0
   -0.7671    0.1975    0.7446 C   0  0  0  0  0  0  0  0  0  0  0  0
   -6.3320    3.0176   11.4850 C   0  0  0  0  0  0  0  0  0  0  0  0
   -4.5471   -0.4724    3.2738 C   0  0  0  0  0  0  0  0  0  0  0  0
   -7.6805   -1.3128    7.9714 C   0  0  0  0  0  0  0  0  0  0  0  0
   -2.5762   -2.2263   -1.0379 C   0  0  0  0  0  0  0  0  0  0  0  0
   -1.3660   -3.1415    0.5536 C   0  0  0  0  0  0  0  0  0  0  0  0
   -7.2157   -2.6421    6.3082 C   0  0  0  0  0  0  0  0  0  0  0  0
   -5.7455   -0.9586    3.8834 C   0  0  0  0  0  0  0  0  0  0  0  0
   -8.2940   -0.1834    8.5823 C   0  0  0  0  0  0  0  0  0  0  0  0
   -6.9111    5.1593   10.2769 C   0  0  0  0  0  0  0  0  0  0  0  0
   -5.7620    0.8805   12.7056 C   0  0  0  0  0  0  0  0  0  0  0  0
   -3.3434   -1.3003   -1.8903 C   0  0  0  0  0  0  0  0  0  0  0  0
   -0.5546   -3.5411    1.7176 C   0  0  0  0  0  0  0  0  0  0  0  0
   -4.2233    1.7156    4.5361 C   0  0  0  0  0  0  0  0  0  0  0  0
   -3.8718    1.2896    5.9734 C   0  0  0  0  0  0  0  0  0  0  0  0
   -4.2945    2.3215    7.0097 C   0  0  0  0  0  0  0  0  0  0  0  0
   -2.4498   -3.5039   -1.4064 N   0  0  0  0  0  0  0  0  0  0  0  0
   -3.8818   -1.1421    2.2822 N   0  0  0  0  0  0  0  0  0  0  0  0
   -1.7087   -4.0344   -0.4187 N   0  0  0  0  0  0  0  0  0  0  0  0
   -5.9253   -2.4013    3.9612 N   0  0  0  0  0  0  0  0  0  0  0  0
   -6.6285   -0.2005    4.3488 O   0  0  0  0  0  0  0  0  0  0  0  0
   -9.0303    0.6619    8.0209 O   0  0  0  0  0  0  0  0  0  0  0  0
   -8.4871   -2.7375    4.0279 O   0  0  0  0  0  0  0  0  0  0  0  0
   -6.9813   -4.6465    4.6852 O   0  0  0  0  0  0  0  0  0  0  0  0
   -7.8999   -1.5178    6.6461 O   0  0  0  0  0  0  0  0  0  0  0  0
   -8.0154   -0.0614    9.9218 O   0  5  0  0  0  0  0  0  0  0  0  0
   -3.9204    1.8574    8.2994 O   0  0  0  0  0  0  0  0  0  0  0  0
   -7.2667   -3.2254    4.6407 S   0  0  0  0  0  0  0  0  0  0  0  0
    0.4784   -0.0707   -0.4286 Cl  0  0  0  0  0  0  0  0  0  0  0  0
   -7.3359    3.5006   12.8108 Cl  0  0  0  0  0  0  0  0  0  0  0  0
   -1.6144    2.5579    3.0534 H   0  0  0  0  0  0  0  0  0  0  0  0
    0.1049    2.0774    1.3603 H   0  0  0  0  0  0  0  0  0  0  0  0
   -6.5256   -2.3800    9.5064 H   0  0  0  0  0  0  0  0  0  0  0  0
   -5.9437   -4.0435    7.4228 H   0  0  0  0  0  0  0  0  0  0  0  0
   -5.2903    4.0997    8.4316 H   0  0  0  0  0  0  0  0  0  0  0  0
   -4.3134    0.4629   10.4959 H   0  0  0  0  0  0  0  0  0  0  0  0
   -7.8950    5.0261    9.8136 H   0  0  0  0  0  0  0  0  0  0  0  0
   -7.0478    5.6055   11.2689 H   0  0  0  0  0  0  0  0  0  0  0  0
   -6.3359    5.8765    9.6793 H   0  0  0  0  0  0  0  0  0  0  0  0
   -4.9850    1.1135   13.4420 H   0  0  0  0  0  0  0  0  0  0  0  0
   -6.7420    0.9716   13.1886 H   0  0  0  0  0  0  0  0  0  0  0  0
   -5.6520   -0.1663   12.3984 H   0  0  0  0  0  0  0  0  0  0  0  0
   -2.6940   -0.8154   -2.6386 H   0  0  0  0  0  0  0  0  0  0  0  0
   -4.1552   -1.8129   -2.4356 H   0  0  0  0  0  0  0  0  0  0  0  0
   -3.8301   -0.5015   -1.3034 H   0  0  0  0  0  0  0  0  0  0  0  0
   -1.1922   -3.8833    2.5501 H   0  0  0  0  0  0  0  0  0  0  0  0
    0.1452   -4.3600    1.4752 H   0  0  0  0  0  0  0  0  0  0  0  0
    0.0689   -2.7112    2.0943 H   0  0  0  0  0  0  0  0  0  0  0  0
   -5.3057    1.9483    4.4941 H   0  0  0  0  0  0  0  0  0  0  0  0
   -3.7195    2.6789    4.3227 H   0  0  0  0  0  0  0  0  0  0  0  0
   -2.7918    1.1111    6.0588 H   0  0  0  0  0  0  0  0  0  0  0  0
   -4.3455    0.3267    6.2060 H   0  0  0  0  0  0  0  0  0  0  0  0
   -3.8008    3.2818    6.8288 H   0  0  0  0  0  0  0  0  0  0  0  0
   -5.3791    2.4692    6.9938 H   0  0  0  0  0  0  0  0  0  0  0  0
   -4.1670   -2.0299    1.8921 H   0  0  0  0  0  0  0  0  0  0  0  0
   -1.4731   -5.0176   -0.4734 H   0  0  0  0  0  0  0  0  0  0  0  0
   -5.1747   -2.9827    3.5706 H   0  0  0  0  0  0  0  0  0  0  0  0
  1  2  2  0  0  0  0
  1  7  1  0  0  0  0
  2 15  1  0  0  0  0
  3  4  1  0  0  0  0
  3 18  2  0  0  0  0
  4 21  2  0  0  0  0
  5 10  1  0  0  0  0
  5 14  2  0  0  0  0
  6 11  2  0  0  0  0
  6 14  1  0  0  0  0
  7 12  1  0  0  0  0
  7 13  2  0  0  0  0
  8  9  1  0  0  0  0
  8 13  1  0  0  0  0
  8 15  2  0  0  0  0
  9 19  1  0  0  0  0
  9 20  2  0  0  0  0
 10 16  2  0  0  0  0
 10 24  1  0  0  0  0
 11 16  1  0  0  0  0
 11 25  1  0  0  0  0
 12 17  2  0  0  0  0
 12 28  1  0  0  0  0
 13 32  1  0  0  0  0
 14 41  1  0  0  0  0
 15 43  1  0  0  0  0
 16 44  1  0  0  0  0
 17 22  1  0  0  0  0
 17 32  1  0  0  0  0
 18 23  1  0  0  0  0
 18 39  1  0  0  0  0
 19 26  1  0  0  0  0
 19 31  2  0  0  0  0
 20 27  1  0  0  0  0
 20 33  1  0  0  0  0
 21 39  1  0  0  0  0
 21 42  1  0  0  0  0
 22 34  1  0  0  0  0
 22 35  2  0  0  0  0
 23 36  2  0  0  0  0
 23 40  1  0  0  0  0
 28 29  1  0  0  0  0
 29 30  1  0  0  0  0
 30 41  1  0  0  0  0
 31 33  1  0  0  0  0
 34 42  1  0  0  0  0
 37 42  2  0  0  0  0
 38 42  2  0  0  0  0
  1 45  1  0  0  0  0
  2 46  1  0  0  0  0
  3 47  1  0  0  0  0
  4 48  1  0  0  0  0
  5 49  1  0  0  0  0
  6 50  1  0  0  0  0
 24 51  1  0  0  0  0
 24 52  1  0  0  0  0
 24 53  1  0  0  0  0
 25 54  1  0  0  0  0
 25 55  1  0  0  0  0
 25 56  1  0  0  0  0
 26 57  1  0  0  0  0
 26 58  1  0  0  0  0
 26 59  1  0  0  0  0
 27 60  1  0  0  0  0
 27 61  1  0  0  0  0
 27 62  1  0  0  0  0
 28 63  1  0  0  0  0
 28 64  1  0  0  0  0
 29 65  1  0  0  0  0
 29 66  1  0  0  0  0
 30 67  1  0  0  0  0
 30 68  1  0  0  0  0
 32 69  1  0  0  0  0
 33 70  1  0  0  0  0
 34 71  1  0  0  0  0
M  CHG  1  40  -1
M  END
> <Molecule Name>
cmp_1

> <mmff94s_NoEstat>
85.32

> <Ki_nM>
0.36

$$$$
cmp_2
  -OEChem-07021816373D

 52 54  0     0  0  0  0  0  0999 V2000
   -1.4362    1.7878    0.8040 C   0  0  0  0  0  0  0  0  0  0  0  0
   -1.3964    0.5619    0.1428 C   0  0  0  0  0  0  0  0  0  0  0  0
   -2.2212    1.9584    1.9501 C   0  0  0  0  0  0  0  0  0  0  0  0
   -2.1374   -0.5301    0.6039 C   0  0  0  0  0  0  0  0  0  0  0  0
    0.7543    1.1475    5.9683 C   0  0  0  0  0  0  0  0  0  0  0  0
    0.2910    0.1018    8.0964 C   0  0  0  0  0  0  0  0  0  0  0  0
   -2.9769    0.8719    2.4336 C   0  0  0  0  0  0  0  0  0  0  0  0
    2.0392    0.6050    5.9814 C   0  0  0  0  0  0  0  0  0  0  0  0
    1.5759   -0.4408    8.1095 C   0  0  0  0  0  0  0  0  0  0  0  0
   -3.8586    0.6897    3.5356 C   0  0  0  0  0  0  0  0  0  0  0  0
   -2.9177   -0.3449    1.7507 C   0  0  0  0  0  0  0  0  0  0  0  0
   -0.1198    0.8960    7.0258 C   0  0  0  0  0  0  0  0  0  0  0  0
    2.4500   -0.1892    7.0520 C   0  0  0  0  0  0  0  0  0  0  0  0
   -4.3094   -0.6097    3.5008 C   0  0  0  0  0  0  0  0  0  0  0  0
   -5.2114   -1.2681    4.3935 C   0  0  0  0  0  0  0  0  0  0  0  0
    2.9418    0.9010    4.8268 C   0  0  0  0  0  0  0  0  0  0  0  0
    1.9731   -1.2859    9.2772 C   0  0  0  0  0  0  0  0  0  0  0  0
   -5.7388   -3.6081    6.6062 C   0  0  0  0  0  0  0  0  0  0  0  0
   -4.2221    1.7152    4.5367 C   0  0  0  0  0  0  0  0  0  0  0  0
   -3.4887    1.5186    5.8763 C   0  0  0  0  0  0  0  0  0  0  0  0
   -1.9772    1.6383    5.7394 C   0  0  0  0  0  0  0  0  0  0  0  0
   -3.7362   -1.2258    2.4209 N   0  0  0  0  0  0  0  0  0  0  0  0
   -5.5250   -2.6646    4.1252 N   0  0  0  0  0  0  0  0  0  0  0  0
   -5.7287   -0.6975    5.3826 O   0  0  0  0  0  0  0  0  0  0  0  0
   -7.8633   -3.0378    5.1899 O   0  0  0  0  0  0  0  0  0  0  0  0
   -6.4554   -5.0281    4.5386 O   0  0  0  0  0  0  0  0  0  0  0  0
   -1.3826    1.4292    7.0127 O   0  0  0  0  0  0  0  0  0  0  0  0
   -6.5684   -3.6709    5.0366 S   0  0  0  0  0  0  0  0  0  0  0  0
    4.0453   -0.8627    7.0682 Cl  0  0  0  0  0  0  0  0  0  0  0  0
   -0.8514    2.6221    0.4259 H   0  0  0  0  0  0  0  0  0  0  0  0
   -0.7802    0.4528   -0.7460 H   0  0  0  0  0  0  0  0  0  0  0  0
   -2.2404    2.9203    2.4546 H   0  0  0  0  0  0  0  0  0  0  0  0
   -2.1059   -1.4844    0.0886 H   0  0  0  0  0  0  0  0  0  0  0  0
    0.4300    1.7671    5.1359 H   0  0  0  0  0  0  0  0  0  0  0  0
   -0.3935   -0.0917    8.9186 H   0  0  0  0  0  0  0  0  0  0  0  0
    3.5182    1.8121    5.0212 H   0  0  0  0  0  0  0  0  0  0  0  0
    3.6404    0.0747    4.6499 H   0  0  0  0  0  0  0  0  0  0  0  0
    2.3680    1.0391    3.9026 H   0  0  0  0  0  0  0  0  0  0  0  0
    1.7254   -2.3358    9.0859 H   0  0  0  0  0  0  0  0  0  0  0  0
    3.0492   -1.2090    9.4722 H   0  0  0  0  0  0  0  0  0  0  0  0
    1.4580   -0.9644   10.1903 H   0  0  0  0  0  0  0  0  0  0  0  0
   -6.2986   -4.2190    7.3162 H   0  0  0  0  0  0  0  0  0  0  0  0
   -4.7287   -3.9999    6.4778 H   0  0  0  0  0  0  0  0  0  0  0  0
   -5.7070   -2.5691    6.9375 H   0  0  0  0  0  0  0  0  0  0  0  0
   -5.3128    1.7158    4.7310 H   0  0  0  0  0  0  0  0  0  0  0  0
   -4.0020    2.7347    4.1629 H   0  0  0  0  0  0  0  0  0  0  0  0
   -3.7379    0.5370    6.3004 H   0  0  0  0  0  0  0  0  0  0  0  0
   -3.8457    2.2525    6.6110 H   0  0  0  0  0  0  0  0  0  0  0  0
   -1.5871    0.8867    5.0456 H   0  0  0  0  0  0  0  0  0  0  0  0
   -1.6952    2.6340    5.3825 H   0  0  0  0  0  0  0  0  0  0  0  0
   -3.8898   -2.1876    2.1505 H   0  0  0  0  0  0  0  0  0  0  0  0
   -5.0745   -3.0891    3.3058 H   0  0  0  0  0  0  0  0  0  0  0  0
  1  2  1  0  0  0  0
  1  3  2  0  0  0  0
  2  4  2  0  0  0  0
  3  7  1  0  0  0  0
  4 11  1  0  0  0  0
  5  8  1  0  0  0  0
  5 12  2  0  0  0  0
  6  9  2  0  0  0  0
  6 12  1  0  0  0  0
  7 10  1  0  0  0  0
  7 11  2  0  0  0  0
  8 13  2  0  0  0  0
  8 16  1  0  0  0  0
  9 13  1  0  0  0  0
  9 17  1  0  0  0  0
 10 14  2  0  0  0  0
 10 19  1  0  0  0  0
 11 22  1  0  0  0  0
 12 27  1  0  0  0  0
 13 29  1  0  0  0  0
 14 15  1  0  0  0  0
 14 22  1  0  0  0  0
 15 23  1  0  0  0  0
 15 24  2  0  0  0  0
 18 28  1  0  0  0  0
 19 20  1  0  0  0  0
 20 21  1  0  0  0  0
 21 27  1  0  0  0  0
 23 28  1  0  0  0  0
 25 28  2  0  0  0  0
 26 28  2  0  0  0  0
  1 30  1  0  0  0  0
  2 31  1  0  0  0  0
  3 32  1  0  0  0  0
  4 33  1  0  0  0  0
  5 34  1  0  0  0  0
  6 35  1  0  0  0  0
 16 36  1  0  0  0  0
 16 37  1  0  0  0  0
 16 38  1  0  0  0  0
 17 39  1  0  0  0  0
 17 40  1  0  0  0  0
 17 41  1  0  0  0  0
 18 42  1  0  0  0  0
 18 43  1  0  0  0  0
 18 44  1  0  0  0  0
 19 45  1  0  0  0  0
 19 46  1  0  0  0  0
 20 47  1  0  0  0  0
 20 48  1  0  0  0  0
 21 49  1  0  0  0  0
 21 50  1  0  0  0  0
 22 51  1  0  0  0  0
 23 52  1  0  0  0  0
M  END
> <Molecule Name>
cmp_2

> <mmff94s_NoEstat>
63.28

> <Ki_nM>
655

$$$$
cmp_3
  -OEChem-07021816373D

 55 57  0     0  0  0  0  0  0999 V2000
   -0.7036    1.3640    1.5041 C   0  0  0  0  0  0  0  0  0  0  0  0
   -0.7671    0.1975    0.7446 C   0  0  0  0  0  0  0  0  0  0  0  0
   -1.6773    1.6439    2.4698 C   0  0  0  0  0  0  0  0  0  0  0  0
   -1.8022   -0.7245    0.9247 C   0  0  0  0  0  0  0  0  0  0  0  0
   -8.6262    1.9216    2.2965 C   0  0  0  0  0  0  0  0  0  0  0  0
   -9.2864    1.2370    4.5175 C   0  0  0  0  0  0  0  0  0  0  0  0
   -2.7304    0.7292    2.6692 C   0  0  0  0  0  0  0  0  0  0  0  0
   -9.8820    1.5574    1.8109 C   0  0  0  0  0  0  0  0  0  0  0  0
  -10.5423    0.8728    4.0319 C   0  0  0  0  0  0  0  0  0  0  0  0
   -3.8586    0.6897    3.5356 C   0  0  0  0  0  0  0  0  0  0  0  0
   -2.7685   -0.4315    1.8936 C   0  0  0  0  0  0  0  0  0  0  0  0
   -8.3284    1.7614    3.6498 C   0  0  0  0  0  0  0  0  0  0  0  0
  -10.8401    1.0330    2.6786 C   0  0  0  0  0  0  0  0  0  0  0  0
   -4.5471   -0.4724    3.2738 C   0  0  0  0  0  0  0  0  0  0  0  0
   -5.7447   -0.9596    3.8838 C   0  0  0  0  0  0  0  0  0  0  0  0
   -8.8783   -2.4795    2.4662 C   0  0  0  0  0  0  0  0  0  0  0  0
  -10.1570    1.7470    0.3536 C   0  0  0  0  0  0  0  0  0  0  0  0
  -11.5378    0.3151    4.9980 C   0  0  0  0  0  0  0  0  0  0  0  0
   -9.3173   -2.2063    0.1579 C   0  0  0  0  0  0  0  0  0  0  0  0
   -4.2221    1.7152    4.5367 C   0  0  0  0  0  0  0  0  0  0  0  0
   -7.8588   -2.3080    3.5677 C   0  0  0  0  0  0  0  0  0  0  0  0
   -4.8638    2.9613    3.8992 C   0  0  0  0  0  0  0  0  0  0  0  0
   -6.1705    2.6462    3.1845 C   0  0  0  0  0  0  0  0  0  0  0  0
   -3.8818   -1.1421    2.2822 N   0  0  0  0  0  0  0  0  0  0  0  0
   -6.6046   -1.7607    3.1028 N   0  0  0  0  0  0  0  0  0  0  0  0
   -6.0406   -0.6715    5.0706 O   0  0  0  0  0  0  0  0  0  0  0  0
   -9.9964   -2.9377    2.6771 O   0  0  0  0  0  0  0  0  0  0  0  0
   -7.0941    2.1194    4.1269 O   0  0  0  0  0  0  0  0  0  0  0  0
   -8.4073   -2.0738    1.2550 O   0  0  0  0  0  0  0  0  0  0  0  0
  -12.3992    0.5808    2.0756 Cl  0  0  0  0  0  0  0  0  0  0  0  0
    0.1109    2.0656    1.3453 H   0  0  0  0  0  0  0  0  0  0  0  0
   -0.0002    0.0014   -0.0004 H   0  0  0  0  0  0  0  0  0  0  0  0
   -1.6128    2.5571    3.0544 H   0  0  0  0  0  0  0  0  0  0  0  0
   -1.8509   -1.6327    0.3331 H   0  0  0  0  0  0  0  0  0  0  0  0
   -7.8765    2.3307    1.6238 H   0  0  0  0  0  0  0  0  0  0  0  0
   -9.0500    1.1138    5.5715 H   0  0  0  0  0  0  0  0  0  0  0  0
   -9.8783    0.8462   -0.2042 H   0  0  0  0  0  0  0  0  0  0  0  0
  -11.2187    1.9553    0.1760 H   0  0  0  0  0  0  0  0  0  0  0  0
   -9.5922    2.5970   -0.0473 H   0  0  0  0  0  0  0  0  0  0  0  0
  -12.1378    1.1229    5.4313 H   0  0  0  0  0  0  0  0  0  0  0  0
  -12.2107   -0.3962    4.5049 H   0  0  0  0  0  0  0  0  0  0  0  0
  -11.0387   -0.2262    5.8105 H   0  0  0  0  0  0  0  0  0  0  0  0
   -8.8382   -1.8534   -0.7586 H   0  0  0  0  0  0  0  0  0  0  0  0
  -10.2190   -1.6221    0.3585 H   0  0  0  0  0  0  0  0  0  0  0  0
   -9.5857   -3.2593    0.0438 H   0  0  0  0  0  0  0  0  0  0  0  0
   -3.3367    2.0364    5.1201 H   0  0  0  0  0  0  0  0  0  0  0  0
   -4.9233    1.3067    5.2910 H   0  0  0  0  0  0  0  0  0  0  0  0
   -7.6480   -3.2846    4.0111 H   0  0  0  0  0  0  0  0  0  0  0  0
   -8.2567   -1.6226    4.3203 H   0  0  0  0  0  0  0  0  0  0  0  0
   -4.1644    3.4227    3.1897 H   0  0  0  0  0  0  0  0  0  0  0  0
   -5.0454    3.7246    4.6675 H   0  0  0  0  0  0  0  0  0  0  0  0
   -6.6018    3.5501    2.7425 H   0  0  0  0  0  0  0  0  0  0  0  0
   -6.0150    1.9027    2.3963 H   0  0  0  0  0  0  0  0  0  0  0  0
   -4.1642   -2.0293    1.8887 H   0  0  0  0  0  0  0  0  0  0  0  0
   -6.3641   -1.9197    2.1298 H   0  0  0  0  0  0  0  0  0  0  0  0
  1  2  1  0  0  0  0
  1  3  2  0  0  0  0
  2  4  2  0  0  0  0
  3  7  1  0  0  0  0
  4 11  1  0  0  0  0
  5  8  1  0  0  0  0
  5 12  2  0  0  0  0
  6  9  2  0  0  0  0
  6 12  1  0  0  0  0
  7 10  1  0  0  0  0
  7 11  2  0  0  0  0
  8 13  2  0  0  0  0
  8 17  1  0  0  0  0
  9 13  1  0  0  0  0
  9 18  1  0  0  0  0
 10 14  2  0  0  0  0
 10 20  1  0  0  0  0
 11 24  1  0  0  0  0
 12 28  1  0  0  0  0
 13 30  1  0  0  0  0
 14 15  1  0  0  0  0
 14 24  1  0  0  0  0
 15 25  1  0  0  0  0
 15 26  2  0  0  0  0
 16 21  1  0  0  0  0
 16 27  2  0  0  0  0
 16 29  1  0  0  0  0
 19 29  1  0  0  0  0
 20 22  1  0  0  0  0
 21 25  1  0  0  0  0
 22 23  1  0  0  0  0
 23 28  1  0  0  0  0
  1 31  1  0  0  0  0
  2 32  1  0  0  0  0
  3 33  1  0  0  0  0
  4 34  1  0  0  0  0
  5 35  1  0  0  0  0
  6 36  1  0  0  0  0
 17 37  1  0  0  0  0
 17 38  1  0  0  0  0
 17 39  1  0  0  0  0
 18 40  1  0  0  0  0
 18 41  1  0  0  0  0
 18 42  1  0  0  0  0
 19 43  1  0  0  0  0
 19 44  1  0  0  0  0
 19 45  1  0  0  0  0
 20 46  1  0  0  0  0
 20 47  1  0  0  0  0
 21 48  1  0  0  0  0
 21 49  1  0  0  0  0
 22 50  1  0  0  0  0
 22 51  1  0  0  0  0
 23 52  1  0  0  0  0
 23 53  1  0  0  0  0
 24 54  1  0  0  0  0
 25 55  1  0  0  0  0
M  END
> <Molecule Name>
cmp_3

> <mmff94s_NoEstat>
70.82

> <Ki_nM>
3200

$$$$
cmp_4
  -OEChem-07021816373D

 51 53  0     0  0  0  0  0  0999 V2000
   -1.4362    1.7878    0.8040 C   0  0  0  0  0  0  0  0  0  0  0  0
   -1.3964    0.5619    0.1428 C   0  0  0  0  0  0  0  0  0  0  0  0
   -2.2212    1.9584    1.9501 C   0  0  0  0  0  0  0  0  0  0  0  0
   -2.1374   -0.5301    0.6039 C   0  0  0  0  0  0  0  0  0  0  0  0
    0.7543    1.1475    5.9683 C   0  0  0  0  0  0  0  0  0  0  0  0
    0.2910    0.1018    8.0964 C   0  0  0  0  0  0  0  0  0  0  0  0
   -2.9769    0.8719    2.4336 C   0  0  0  0  0  0  0  0  0  0  0  0
    2.0392    0.6050    5.9814 C   0  0  0  0  0  0  0  0  0  0  0  0
    1.5759   -0.4408    8.1095 C   0  0  0  0  0  0  0  0  0  0  0  0
   -3.8586    0.6897    3.5356 C   0  0  0  0  0  0  0  0  0  0  0  0
   -2.9177   -0.3449    1.7507 C   0  0  0  0  0  0  0  0  0  0  0  0
   -0.1198    0.8960    7.0258 C   0  0  0  0  0  0  0  0  0  0  0  0
    2.4500   -0.1892    7.0520 C   0  0  0  0  0  0  0  0  0  0  0  0
   -4.3094   -0.6097    3.5008 C   0  0  0  0  0  0  0  0  0  0  0  0
   -5.2114   -1.2681    4.3935 C   0  0  0  0  0  0  0  0  0  0  0  0
   -5.6520   -4.0802    6.0304 C   0  0  0  0  0  0  0  0  0  0  0  0
    2.9418    0.9010    4.8268 C   0  0  0  0  0  0  0  0  0  0  0  0
    1.9731   -1.2859    9.2772 C   0  0  0  0  0  0  0  0  0  0  0  0
   -4.2221    1.7152    4.5367 C   0  0  0  0  0  0  0  0  0  0  0  0
   -6.4291   -3.4153    4.9357 C   0  0  0  0  0  0  0  0  0  0  0  0
   -3.4887    1.5186    5.8763 C   0  0  0  0  0  0  0  0  0  0  0  0
   -1.9772    1.6383    5.7394 C   0  0  0  0  0  0  0  0  0  0  0  0
   -3.7362   -1.2258    2.4209 N   0  0  0  0  0  0  0  0  0  0  0  0
   -5.5204   -2.6215    4.1403 N   0  0  0  0  0  0  0  0  0  0  0  0
   -5.7332   -0.6629    5.3632 O   0  0  0  0  0  0  0  0  0  0  0  0
   -4.4541   -3.9662    6.2431 O   0  0  0  0  0  0  0  0  0  0  0  0
   -6.4789   -4.8519    6.7823 O   0  5  0  0  0  0  0  0  0  0  0  0
   -1.3826    1.4292    7.0127 O   0  0  0  0  0  0  0  0  0  0  0  0
    4.0453   -0.8627    7.0682 Cl  0  0  0  0  0  0  0  0  0  0  0  0
   -0.8514    2.6221    0.4259 H   0  0  0  0  0  0  0  0  0  0  0  0
   -0.7802    0.4528   -0.7460 H   0  0  0  0  0  0  0  0  0  0  0  0
   -2.2404    2.9203    2.4546 H   0  0  0  0  0  0  0  0  0  0  0  0
   -2.1059   -1.4844    0.0886 H   0  0  0  0  0  0  0  0  0  0  0  0
    0.4300    1.7671    5.1359 H   0  0  0  0  0  0  0  0  0  0  0  0
   -0.3935   -0.0917    8.9186 H   0  0  0  0  0  0  0  0  0  0  0  0
    3.5182    1.8121    5.0212 H   0  0  0  0  0  0  0  0  0  0  0  0
    3.6404    0.0747    4.6499 H   0  0  0  0  0  0  0  0  0  0  0  0
    2.3680    1.0391    3.9026 H   0  0  0  0  0  0  0  0  0  0  0  0
    1.7254   -2.3358    9.0859 H   0  0  0  0  0  0  0  0  0  0  0  0
    3.0492   -1.2090    9.4722 H   0  0  0  0  0  0  0  0  0  0  0  0
    1.4580   -0.9644   10.1903 H   0  0  0  0  0  0  0  0  0  0  0  0
   -5.3128    1.7158    4.7310 H   0  0  0  0  0  0  0  0  0  0  0  0
   -4.0020    2.7347    4.1629 H   0  0  0  0  0  0  0  0  0  0  0  0
   -6.8887   -4.1749    4.2978 H   0  0  0  0  0  0  0  0  0  0  0  0
   -7.1924   -2.7617    5.3657 H   0  0  0  0  0  0  0  0  0  0  0  0
   -3.7379    0.5370    6.3004 H   0  0  0  0  0  0  0  0  0  0  0  0
   -3.8457    2.2525    6.6110 H   0  0  0  0  0  0  0  0  0  0  0  0
   -1.5871    0.8867    5.0456 H   0  0  0  0  0  0  0  0  0  0  0  0
   -1.6952    2.6340    5.3825 H   0  0  0  0  0  0  0  0  0  0  0  0
   -3.8898   -2.1876    2.1505 H   0  0  0  0  0  0  0  0  0  0  0  0
   -5.1295   -3.0585    3.3120 H   0  0  0  0  0  0  0  0  0  0  0  0
  1  2  1  0  0  0  0
  1  3  2  0  0  0  0
  2  4  2  0  0  0  0
  3  7  1  0  0  0  0
  4 11  1  0  0  0  0
  5  8  1  0  0  0  0
  5 12  2  0  0  0  0
  6  9  2  0  0  0  0
  6 12  1  0  0  0  0
  7 10  1  0  0  0  0
  7 11  2  0  0  0  0
  8 13  2  0  0  0  0
  8 17  1  0  0  0  0
  9 13  1  0  0  0  0
  9 18  1  0  0  0  0
 10 14  2  0  0  0  0
 10 19  1  0  0  0  0
 11 23  1  0  0  0  0
 12 28  1  0  0  0  0
 13 29  1  0  0  0  0
 14 15  1  0  0  0  0
 14 23  1  0  0  0  0
 15 24  1  0  0  0  0
 15 25  2  0  0  0  0
 16 20  1  0  0  0  0
 16 26  2  0  0  0  0
 16 27  1  0  0  0  0
 19 21  1  0  0  0  0
 20 24  1  0  0  0  0
 21 22  1  0  0  0  0
 22 28  1  0  0  0  0
  1 30  1  0  0  0  0
  2 31  1  0  0  0  0
  3 32  1  0  0  0  0
  4 33  1  0  0  0  0
  5 34  1  0  0  0  0
  6 35  1  0  0  0  0
 17 36  1  0  0  0  0
 17 37  1  0  0  0  0
 17 38  1  0  0  0  0
 18 39  1  0  0  0  0
 18 40  1  0  0  0  0
 18 41  1  0  0  0  0
 19 42  1  0  0  0  0
 19 43  1  0  0  0  0
 20 44  1  0  0  0  0
 20 45  1  0  0  0  0
 21 46  1  0  0  0  0
 21 47  1  0  0  0  0
 22 48  1  0  0  0  0
 22 49  1  0  0  0  0
 23 50  1  0  0  0  0
 24 51  1  0  0  0  0
M  CHG  1  27  -1
M  END
> <Molecule Name>
cmp_4

> <mmff94s_NoEstat>
68.50

> <Ki_nM>
620

$$$$
cmp_5
  -OEChem-07021816373D

 54 56  0     0  0  0  0  0  0999 V2000
   -0.7036    1.3640    1.5041 C   0  0  0  0  0  0  0  0  0  0  0  0
   -0.7671    0.1975    0.7446 C   0  0  0  0  0  0  0  0  0  0  0  0
   -1.6773    1.6439    2.4698 C   0  0  0  0  0  0  0  0  0  0  0  0
   -1.8022   -0.7245    0.9247 C   0  0  0  0  0  0  0  0  0  0  0  0
   -8.6262    1.9216    2.2965 C   0  0  0  0  0  0  0  0  0  0  0  0
   -9.2864    1.2370    4.5175 C   0  0  0  0  0  0  0  0  0  0  0  0
   -2.7304    0.7292    2.6692 C   0  0  0  0  0  0  0  0  0  0  0  0
   -9.8820    1.5574    1.8109 C   0  0  0  0  0  0  0  0  0  0  0  0
  -10.5423    0.8728    4.0319 C   0  0  0  0  0  0  0  0  0  0  0  0
   -3.8586    0.6897    3.5356 C   0  0  0  0  0  0  0  0  0  0  0  0
   -2.7685   -0.4315    1.8936 C   0  0  0  0  0  0  0  0  0  0  0  0
   -8.3284    1.7614    3.6498 C   0  0  0  0  0  0  0  0  0  0  0  0
  -10.8401    1.0330    2.6786 C   0  0  0  0  0  0  0  0  0  0  0  0
   -4.5471   -0.4724    3.2738 C   0  0  0  0  0  0  0  0  0  0  0  0
   -5.7447   -0.9596    3.8838 C   0  0  0  0  0  0  0  0  0  0  0  0
  -10.1952   -3.0236    2.9054 C   0  0  0  0  0  0  0  0  0  0  0  0
  -10.1570    1.7470    0.3536 C   0  0  0  0  0  0  0  0  0  0  0  0
  -11.5378    0.3151    4.9980 C   0  0  0  0  0  0  0  0  0  0  0  0
   -4.2221    1.7152    4.5367 C   0  0  0  0  0  0  0  0  0  0  0  0
   -8.8668   -2.4699    2.4374 C   0  0  0  0  0  0  0  0  0  0  0  0
   -4.8638    2.9613    3.8992 C   0  0  0  0  0  0  0  0  0  0  0  0
   -7.8588   -2.3080    3.5677 C   0  0  0  0  0  0  0  0  0  0  0  0
   -6.1705    2.6462    3.1845 C   0  0  0  0  0  0  0  0  0  0  0  0
   -3.8818   -1.1421    2.2822 N   0  0  0  0  0  0  0  0  0  0  0  0
   -6.6046   -1.7607    3.1028 N   0  0  0  0  0  0  0  0  0  0  0  0
   -6.0406   -0.6715    5.0706 O   0  0  0  0  0  0  0  0  0  0  0  0
  -10.4629   -3.3587    4.0507 O   0  0  0  0  0  0  0  0  0  0  0  0
  -11.0866   -3.1025    1.8827 O   0  5  0  0  0  0  0  0  0  0  0  0
   -7.0941    2.1194    4.1269 O   0  0  0  0  0  0  0  0  0  0  0  0
  -12.3992    0.5808    2.0756 Cl  0  0  0  0  0  0  0  0  0  0  0  0
    0.1109    2.0656    1.3453 H   0  0  0  0  0  0  0  0  0  0  0  0
   -0.0002    0.0014   -0.0004 H   0  0  0  0  0  0  0  0  0  0  0  0
   -1.6128    2.5571    3.0544 H   0  0  0  0  0  0  0  0  0  0  0  0
   -1.8509   -1.6327    0.3331 H   0  0  0  0  0  0  0  0  0  0  0  0
   -7.8765    2.3307    1.6238 H   0  0  0  0  0  0  0  0  0  0  0  0
   -9.0500    1.1138    5.5715 H   0  0  0  0  0  0  0  0  0  0  0  0
   -9.8783    0.8462   -0.2042 H   0  0  0  0  0  0  0  0  0  0  0  0
  -11.2187    1.9553    0.1760 H   0  0  0  0  0  0  0  0  0  0  0  0
   -9.5922    2.5970   -0.0473 H   0  0  0  0  0  0  0  0  0  0  0  0
  -12.1378    1.1229    5.4313 H   0  0  0  0  0  0  0  0  0  0  0  0
  -12.2107   -0.3962    4.5049 H   0  0  0  0  0  0  0  0  0  0  0  0
  -11.0387   -0.2262    5.8105 H   0  0  0  0  0  0  0  0  0  0  0  0
   -3.3367    2.0364    5.1201 H   0  0  0  0  0  0  0  0  0  0  0  0
   -4.9233    1.3067    5.2910 H   0  0  0  0  0  0  0  0  0  0  0  0
   -8.4633   -3.1390    1.6689 H   0  0  0  0  0  0  0  0  0  0  0  0
   -9.0589   -1.4873    1.9923 H   0  0  0  0  0  0  0  0  0  0  0  0
   -4.1644    3.4227    3.1897 H   0  0  0  0  0  0  0  0  0  0  0  0
   -5.0454    3.7246    4.6675 H   0  0  0  0  0  0  0  0  0  0  0  0
   -7.6422   -3.2633    4.0563 H   0  0  0  0  0  0  0  0  0  0  0  0
   -8.2477   -1.6168    4.3219 H   0  0  0  0  0  0  0  0  0  0  0  0
   -6.6018    3.5501    2.7425 H   0  0  0  0  0  0  0  0  0  0  0  0
   -6.0150    1.9027    2.3963 H   0  0  0  0  0  0  0  0  0  0  0  0
   -4.1642   -2.0293    1.8887 H   0  0  0  0  0  0  0  0  0  0  0  0
   -6.3641   -1.9197    2.1298 H   0  0  0  0  0  0  0  0  0  0  0  0
  1  2  1  0  0  0  0
  1  3  2  0  0  0  0
  2  4  2  0  0  0  0
  3  7  1  0  0  0  0
  4 11  1  0  0  0  0
  5  8  1  0  0  0  0
  5 12  2  0  0  0  0
  6  9  2  0  0  0  0
  6 12  1  0  0  0  0
  7 10  1  0  0  0  0
  7 11  2  0  0  0  0
  8 13  2  0  0  0  0
  8 17  1  0  0  0  0
  9 13  1  0  0  0  0
  9 18  1  0  0  0  0
 10 14  2  0  0  0  0
 10 19  1  0  0  0  0
 11 24  1  0  0  0  0
 12 29  1  0  0  0  0
 13 30  1  0  0  0  0
 14 15  1  0  0  0  0
 14 24  1  0  0  0  0
 15 25  1  0  0  0  0
 15 26  2  0  0  0  0
 16 20  1  0  0  0  0
 16 27  2  0  0  0  0
 16 28  1  0  0  0  0
 19 21  1  0  0  0  0
 20 22  1  0  0  0  0
 21 23  1  0  0  0  0
 22 25  1  0  0  0  0
 23 29  1  0  0  0  0
  1 31  1  0  0  0  0
  2 32  1  0  0  0  0
  3 33  1  0  0  0  0
  4 34  1  0  0  0  0
  5 35  1  0  0  0  0
  6 36  1  0  0  0  0
 17 37  1  0  0  0  0
 17 38  1  0  0  0  0
 17 39  1  0  0  0  0
 18 40  1  0  0  0  0
 18 41  1  0  0  0  0
 18 42  1  0  0  0  0
 19 43  1  0  0  0  0
 19 44  1  0  0  0  0
 20 45  1  0  0  0  0
 20 46  1  0  0  0  0
 21 47  1  0  0  0  0
 21 48  1  0  0  0  0
 22 49  1  0  0  0  0
 22 50  1  0  0  0  0
 23 51  1  0  0  0  0
 23 52  1  0  0  0  0
 24 53  1  0  0  0  0
 25 54  1  0  0  0  0
M  CHG  1  28  -1
M  END
> <Molecule Name>
cmp_5

> <mmff94s_NoEstat>
65.62

> <Ki_nM>
570

$$$$
cmp_6
  -OEChem-07021816373D

 58 61  0     0  0  0  0  0  0999 V2000
   -0.7036    1.3640    1.5041 C   0  0  0  0  0  0  0  0  0  0  0  0
   -0.7671    0.1975    0.7446 C   0  0  0  0  0  0  0  0  0  0  0  0
   -1.6773    1.6439    2.4698 C   0  0  0  0  0  0  0  0  0  0  0  0
   -1.8022   -0.7245    0.9247 C   0  0  0  0  0  0  0  0  0  0  0  0
   -9.9964   -2.7714    0.5582 C   0  0  0  0  0  0  0  0  0  0  0  0
   -8.7013   -2.5295    1.0753 C   0  0  0  0  0  0  0  0  0  0  0  0
   -8.6262    1.9216    2.2965 C   0  0  0  0  0  0  0  0  0  0  0  0
   -9.2864    1.2370    4.5175 C   0  0  0  0  0  0  0  0  0  0  0  0
   -2.7304    0.7292    2.6692 C   0  0  0  0  0  0  0  0  0  0  0  0
   -9.8820    1.5574    1.8109 C   0  0  0  0  0  0  0  0  0  0  0  0
  -10.5423    0.8728    4.0319 C   0  0  0  0  0  0  0  0  0  0  0  0
   -3.8586    0.6897    3.5356 C   0  0  0  0  0  0  0  0  0  0  0  0
   -2.7685   -0.4315    1.8936 C   0  0  0  0  0  0  0  0  0  0  0  0
   -8.3284    1.7614    3.6498 C   0  0  0  0  0  0  0  0  0  0  0  0
  -10.8401    1.0330    2.6786 C   0  0  0  0  0  0  0  0  0  0  0  0
   -4.5471   -0.4724    3.2738 C   0  0  0  0  0  0  0  0  0  0  0  0
  -10.8279   -2.8846    1.6480 C   0  0  0  0  0  0  0  0  0  0  0  0
   -8.8338   -2.5118    2.4443 C   0  0  0  0  0  0  0  0  0  0  0  0
   -5.7447   -0.9596    3.8838 C   0  0  0  0  0  0  0  0  0  0  0  0
  -12.2266   -3.1272    1.7466 C   0  0  0  0  0  0  0  0  0  0  0  0
  -10.1570    1.7470    0.3536 C   0  0  0  0  0  0  0  0  0  0  0  0
  -11.5378    0.3151    4.9980 C   0  0  0  0  0  0  0  0  0  0  0  0
   -4.2221    1.7152    4.5367 C   0  0  0  0  0  0  0  0  0  0  0  0
   -7.8588   -2.3080    3.5677 C   0  0  0  0  0  0  0  0  0  0  0  0
   -4.8638    2.9613    3.8992 C   0  0  0  0  0  0  0  0  0  0  0  0
   -6.1705    2.6462    3.1845 C   0  0  0  0  0  0  0  0  0  0  0  0
   -3.8818   -1.1421    2.2822 N   0  0  0  0  0  0  0  0  0  0  0  0
   -6.6046   -1.7607    3.1028 N   0  0  0  0  0  0  0  0  0  0  0  0
   -6.0406   -0.6715    5.0706 O   0  0  0  0  0  0  0  0  0  0  0  0
  -12.8977   -3.2133    2.8022 O   0  0  0  0  0  0  0  0  0  0  0  0
  -10.1270   -2.7275    2.8015 O   0  0  0  0  0  0  0  0  0  0  0  0
  -12.8486   -3.2716    0.5305 O   0  5  0  0  0  0  0  0  0  0  0  0
   -7.0941    2.1194    4.1269 O   0  0  0  0  0  0  0  0  0  0  0  0
  -12.3992    0.5808    2.0756 Cl  0  0  0  0  0  0  0  0  0  0  0  0
    0.1109    2.0656    1.3453 H   0  0  0  0  0  0  0  0  0  0  0  0
   -0.0002    0.0014   -0.0004 H   0  0  0  0  0  0  0  0  0  0  0  0
   -1.6128    2.5571    3.0544 H   0  0  0  0  0  0  0  0  0  0  0  0
   -1.8509   -1.6327    0.3331 H   0  0  0  0  0  0  0  0  0  0  0  0
  -10.2845   -2.8530   -0.4802 H   0  0  0  0  0  0  0  0  0  0  0  0
   -7.7869   -2.3870    0.5171 H   0  0  0  0  0  0  0  0  0  0  0  0
   -7.8765    2.3307    1.6238 H   0  0  0  0  0  0  0  0  0  0  0  0
   -9.0500    1.1138    5.5715 H   0  0  0  0  0  0  0  0  0  0  0  0
   -9.8783    0.8462   -0.2042 H   0  0  0  0  0  0  0  0  0  0  0  0
  -11.2187    1.9553    0.1760 H   0  0  0  0  0  0  0  0  0  0  0  0
   -9.5922    2.5970   -0.0473 H   0  0  0  0  0  0  0  0  0  0  0  0
  -12.1378    1.1229    5.4313 H   0  0  0  0  0  0  0  0  0  0  0  0
  -12.2107   -0.3962    4.5049 H   0  0  0  0  0  0  0  0  0  0  0  0
  -11.0387   -0.2262    5.8105 H   0  0  0  0  0  0  0  0  0  0  0  0
   -3.3367    2.0364    5.1201 H   0  0  0  0  0  0  0  0  0  0  0  0
   -4.9233    1.3067    5.2910 H   0  0  0  0  0  0  0  0  0  0  0  0
   -8.2698   -1.6213    4.3158 H   0  0  0  0  0  0  0  0  0  0  0  0
   -7.6433   -3.2530    4.0773 H   0  0  0  0  0  0  0  0  0  0  0  0
   -4.1644    3.4227    3.1897 H   0  0  0  0  0  0  0  0  0  0  0  0
   -5.0454    3.7246    4.6675 H   0  0  0  0  0  0  0  0  0  0  0  0
   -6.6018    3.5501    2.7425 H   0  0  0  0  0  0  0  0  0  0  0  0
   -6.0150    1.9027    2.3963 H   0  0  0  0  0  0  0  0  0  0  0  0
   -4.1642   -2.0293    1.8887 H   0  0  0  0  0  0  0  0  0  0  0  0
   -6.3641   -1.9197    2.1298 H   0  0  0  0  0  0  0  0  0  0  0  0
  1  2  1  0  0  0  0
  1  3  2  0  0  0  0
  2  4  2  0  0  0  0
  3  9  1  0  0  0  0
  4 13  1  0  0  0  0
  5  6  1  0  0  0  0
  5 17  2  0  0  0  0
  6 18  2  0  0  0  0
  7 10  1  0  0  0  0
  7 14  2  0  0  0  0
  8 11  2  0  0  0  0
  8 14  1  0  0  0  0
  9 12  1  0  0  0  0
  9 13  2  0  0  0  0
 10 15  2  0  0  0  0
 10 21  1  0  0  0  0
 11 15  1  0  0  0  0
 11 22  1  0  0  0  0
 12 16  2  0  0  0  0
 12 23  1  0  0  0  0
 13 27  1  0  0  0  0
 14 33  1  0  0  0  0
 15 34  1  0  0  0  0
 16 19  1  0  0  0  0
 16 27  1  0  0  0  0
 17 20  1  0  0  0  0
 17 31  1  0  0  0  0
 18 24  1  0  0  0  0
 18 31  1  0  0  0  0
 19 28  1  0  0  0  0
 19 29  2  0  0  0  0
 20 30  2  0  0  0  0
 20 32  1  0  0  0  0
 23 25  1  0  0  0  0
 24 28  1  0  0  0  0
 25 26  1  0  0  0  0
 26 33  1  0  0  0  0
  1 35  1  0  0  0  0
  2 36  1  0  0  0  0
  3 37  1  0  0  0  0
  4 38  1  0  0  0  0
  5 39  1  0  0  0  0
  6 40  1  0  0  0  0
  7 41  1  0  0  0  0
  8 42  1  0  0  0  0
 21 43  1  0  0  0  0
 21 44  1  0  0  0  0
 21 45  1  0  0  0  0
 22 46  1  0  0  0  0
 22 47  1  0  0  0  0
 22 48  1  0  0  0  0
 23 49  1  0  0  0  0
 23 50  1  0  0  0  0
 24 51  1  0  0  0  0
 24 52  1  0  0  0  0
 25 53  1  0  0  0  0
 25 54  1  0  0  0  0
 26 55  1  0  0  0  0
 26 56  1  0  0  0  0
 27 57  1  0  0  0  0
 28 58  1  0  0  0  0
M  CHG  1  32  -1
M  END
> <Molecule Name>
cmp_6

> <mmff94s_NoEstat>
68.80

> <Ki_nM>
69

$$$$
cmp_7
  -OEChem-07021816373D

 74 78  0     0  0  0  0  0  0999 V2000
   -0.7036    1.3640    1.5041 C   0  0  0  0  0  0  0  0  0  0  0  0
   -1.6773    1.6439    2.4698 C   0  0  0  0  0  0  0  0  0  0  0  0
   -0.7671    0.1975    0.7446 C   0  0  0  0  0  0  0  0  0  0  0  0
   -9.9977   -2.7707    0.5601 C   0  0  0  0  0  0  0  0  0  0  0  0
   -8.7024   -2.5290    1.0768 C   0  0  0  0  0  0  0  0  0  0  0  0
   -8.6270    1.9158    2.2948 C   0  0  0  0  0  0  0  0  0  0  0  0
   -9.2869    1.2327    4.5163 C   0  0  0  0  0  0  0  0  0  0  0  0
   -2.7304    0.7292    2.6692 C   0  0  0  0  0  0  0  0  0  0  0  0
   -1.8022   -0.7245    0.9247 C   0  0  0  0  0  0  0  0  0  0  0  0
   -1.8868   -1.9291    0.1556 C   0  0  0  0  0  0  0  0  0  0  0  0
   -9.8824    1.5499    1.8094 C   0  0  0  0  0  0  0  0  0  0  0  0
  -10.5423    0.8668    4.0309 C   0  0  0  0  0  0  0  0  0  0  0  0
   -3.8586    0.6897    3.5356 C   0  0  0  0  0  0  0  0  0  0  0  0
   -2.7685   -0.4315    1.8936 C   0  0  0  0  0  0  0  0  0  0  0  0
   -8.3292    1.7572    3.6483 C   0  0  0  0  0  0  0  0  0  0  0  0
  -10.8401    1.0254    2.6774 C   0  0  0  0  0  0  0  0  0  0  0  0
   -4.5471   -0.4724    3.2738 C   0  0  0  0  0  0  0  0  0  0  0  0
  -10.8288   -2.8837    1.6503 C   0  0  0  0  0  0  0  0  0  0  0  0
   -1.8839   -3.2814    0.5468 C   0  0  0  0  0  0  0  0  0  0  0  0
   -1.9906   -1.9680   -1.2134 C   0  0  0  0  0  0  0  0  0  0  0  0
   -8.8344   -2.5112    2.4458 C   0  0  0  0  0  0  0  0  0  0  0  0
   -5.7447   -0.9595    3.8843 C   0  0  0  0  0  0  0  0  0  0  0  0
  -12.2276   -3.1261    1.7493 C   0  0  0  0  0  0  0  0  0  0  0  0
  -10.1573    1.7377    0.3518 C   0  0  0  0  0  0  0  0  0  0  0  0
  -11.5374    0.3091    4.9974 C   0  0  0  0  0  0  0  0  0  0  0  0
   -1.7894   -3.8298    1.9118 C   0  0  0  0  0  0  0  0  0  0  0  0
   -2.0461   -0.8941   -2.2255 C   0  0  0  0  0  0  0  0  0  0  0  0
   -2.1522   -3.8474   -2.8740 C   0  0  0  0  0  0  0  0  0  0  0  0
   -4.2232    1.7159    4.5359 C   0  0  0  0  0  0  0  0  0  0  0  0
   -7.8590   -2.3075    3.5689 C   0  0  0  0  0  0  0  0  0  0  0  0
   -4.8659    2.9608    3.8971 C   0  0  0  0  0  0  0  0  0  0  0  0
   -6.1721    2.6436    3.1825 C   0  0  0  0  0  0  0  0  0  0  0  0
   -1.9786   -4.1183   -0.4899 N   0  0  0  0  0  0  0  0  0  0  0  0
   -3.8818   -1.1421    2.2822 N   0  0  0  0  0  0  0  0  0  0  0  0
   -2.0420   -3.2897   -1.5460 N   0  0  0  0  0  0  0  0  0  0  0  0
   -6.6048   -1.7604    3.1035 N   0  0  0  0  0  0  0  0  0  0  0  0
   -6.0400   -0.6713    5.0711 O   0  0  0  0  0  0  0  0  0  0  0  0
  -12.8982   -3.2121    2.8052 O   0  0  0  0  0  0  0  0  0  0  0  0
  -10.1275   -2.7267    2.8035 O   0  0  0  0  0  0  0  0  0  0  0  0
  -12.8500   -3.2705    0.5334 O   0  5  0  0  0  0  0  0  0  0  0  0
   -7.0954    2.1169    4.1252 O   0  0  0  0  0  0  0  0  0  0  0  0
  -12.3986    0.5710    2.0746 Cl  0  0  0  0  0  0  0  0  0  0  0  0
    0.1110    2.0660    1.3470 H   0  0  0  0  0  0  0  0  0  0  0  0
   -1.6149    2.5582    3.0531 H   0  0  0  0  0  0  0  0  0  0  0  0
    0.0074    0.0133    0.0025 H   0  0  0  0  0  0  0  0  0  0  0  0
  -10.2862   -2.8522   -0.4782 H   0  0  0  0  0  0  0  0  0  0  0  0
   -7.7882   -2.3866    0.5183 H   0  0  0  0  0  0  0  0  0  0  0  0
   -7.8776    2.3249    1.6218 H   0  0  0  0  0  0  0  0  0  0  0  0
   -9.0506    1.1108    5.5705 H   0  0  0  0  0  0  0  0  0  0  0  0
   -9.8776    0.8366   -0.2051 H   0  0  0  0  0  0  0  0  0  0  0  0
  -11.2192    1.9448    0.1739 H   0  0  0  0  0  0  0  0  0  0  0  0
   -9.5932    2.5879   -0.0499 H   0  0  0  0  0  0  0  0  0  0  0  0
  -12.1383    1.1167    5.4298 H   0  0  0  0  0  0  0  0  0  0  0  0
  -12.2096   -0.4034    4.5049 H   0  0  0  0  0  0  0  0  0  0  0  0
  -11.0379   -0.2309    5.8106 H   0  0  0  0  0  0  0  0  0  0  0  0
   -2.7887   -3.9575    2.3609 H   0  0  0  0  0  0  0  0  0  0  0  0
   -1.2870   -4.8129    1.9311 H   0  0  0  0  0  0  0  0  0  0  0  0
   -1.2033   -3.1770    2.5824 H   0  0  0  0  0  0  0  0  0  0  0  0
   -1.0358   -0.6254   -2.5746 H   0  0  0  0  0  0  0  0  0  0  0  0
   -2.6389   -1.1884   -3.1081 H   0  0  0  0  0  0  0  0  0  0  0  0
   -2.5195    0.0211   -1.8313 H   0  0  0  0  0  0  0  0  0  0  0  0
   -1.1412   -3.9985   -3.2614 H   0  0  0  0  0  0  0  0  0  0  0  0
   -2.6894   -4.7988   -2.8260 H   0  0  0  0  0  0  0  0  0  0  0  0
   -2.7076   -3.1544   -3.5121 H   0  0  0  0  0  0  0  0  0  0  0  0
   -3.3381    2.0382    5.1190 H   0  0  0  0  0  0  0  0  0  0  0  0
   -4.9241    1.3073    5.2903 H   0  0  0  0  0  0  0  0  0  0  0  0
   -8.2696   -1.6208    4.3171 H   0  0  0  0  0  0  0  0  0  0  0  0
   -7.6435   -3.2526    4.0785 H   0  0  0  0  0  0  0  0  0  0  0  0
   -4.1668    3.4221    3.1872 H   0  0  0  0  0  0  0  0  0  0  0  0
   -5.0483    3.7246    4.6645 H   0  0  0  0  0  0  0  0  0  0  0  0
   -6.6043    3.5467    2.7394 H   0  0  0  0  0  0  0  0  0  0  0  0
   -6.0157    1.8995    2.3950 H   0  0  0  0  0  0  0  0  0  0  0  0
   -4.1672   -2.0294    1.8911 H   0  0  0  0  0  0  0  0  0  0  0  0
   -6.3647   -1.9195    2.1305 H   0  0  0  0  0  0  0  0  0  0  0  0
  1  2  2  0  0  0  0
  1  3  1  0  0  0  0
  2  8  1  0  0  0  0
  3  9  2  0  0  0  0
  4  5  1  0  0  0  0
  4 18  2  0  0  0  0
  5 21  2  0  0  0  0
  6 11  1  0  0  0  0
  6 15  2  0  0  0  0
  7 12  2  0  0  0  0
  7 15  1  0  0  0  0
  8 13  1  0  0  0  0
  8 14  2  0  0  0  0
  9 10  1  0  0  0  0
  9 14  1  0  0  0  0
 10 19  1  0  0  0  0
 10 20  2  0  0  0  0
 11 16  2  0  0  0  0
 11 24  1  0  0  0  0
 12 16  1  0  0  0  0
 12 25  1  0  0  0  0
 13 17  2  0  0  0  0
 13 29  1  0  0  0  0
 14 34  1  0  0  0  0
 15 41  1  0  0  0  0
 16 42  1  0  0  0  0
 17 22  1  0  0  0  0
 17 34  1  0  0  0  0
 18 23  1  0  0  0  0
 18 39  1  0  0  0  0
 19 26  1  0  0  0  0
 19 33  2  0  0  0  0
 20 27  1  0  0  0  0
 20 35  1  0  0  0  0
 21 30  1  0  0  0  0
 21 39  1  0  0  0  0
 22 36  1  0  0  0  0
 22 37  2  0  0  0  0
 23 38  2  0  0  0  0
 23 40  1  0  0  0  0
 28 35  1  0  0  0  0
 29 31  1  0  0  0  0
 30 36  1  0  0  0  0
 31 32  1  0  0  0  0
 32 41  1  0  0  0  0
 33 35  1  0  0  0  0
  1 43  1  0  0  0  0
  2 44  1  0  0  0  0
  3 45  1  0  0  0  0
  4 46  1  0  0  0  0
  5 47  1  0  0  0  0
  6 48  1  0  0  0  0
  7 49  1  0  0  0  0
 24 50  1  0  0  0  0
 24 51  1  0  0  0  0
 24 52  1  0  0  0  0
 25 53  1  0  0  0  0
 25 54  1  0  0  0  0
 25 55  1  0  0  0  0
 26 56  1  0  0  0  0
 26 57  1  0  0  0  0
 26 58  1  0  0  0  0
 27 59  1  0  0  0  0
 27 60  1  0  0  0  0
 27 61  1  0  0  0  0
 28 62  1  0  0  0  0
 28 63  1  0  0  0  0
 28 64  1  0  0  0  0
 29 65  1  0  0  0  0
 29 66  1  0  0  0  0
 30 67  1  0  0  0  0
 30 68  1  0  0  0  0
 31 69  1  0  0  0  0
 31 70  1  0  0  0  0
 32 71  1  0  0  0  0
 32 72  1  0  0  0  0
 34 73  1  0  0  0  0
 36 74  1  0  0  0  0
M  CHG  1  40  -1
M  END
> <Molecule Name>
cmp_7

> <mmff94s_NoEstat>
86.37

> <Ki_nM>
19

$$$$
cmp_8
  -OEChem-07021816373D

 77 81  0     0  0  0  0  0  0999 V2000
   -0.7036    1.3640    1.5041 C   0  0  0  0  0  0  0  0  0  0  0  0
   -9.1774   -5.2622    1.5926 C   0  0  0  0  0  0  0  0  0  0  0  0
   -1.6773    1.6439    2.4698 C   0  0  0  0  0  0  0  0  0  0  0  0
   -0.7671    0.1975    0.7446 C   0  0  0  0  0  0  0  0  0  0  0  0
   -9.8252   -4.6212    0.5367 C   0  0  0  0  0  0  0  0  0  0  0  0
   -8.5383   -4.5102    2.5784 C   0  0  0  0  0  0  0  0  0  0  0  0
   -9.1947   -2.4761    1.4520 C   0  0  0  0  0  0  0  0  0  0  0  0
   -8.6270    1.9158    2.2948 C   0  0  0  0  0  0  0  0  0  0  0  0
   -9.2869    1.2327    4.5163 C   0  0  0  0  0  0  0  0  0  0  0  0
   -2.7304    0.7292    2.6692 C   0  0  0  0  0  0  0  0  0  0  0  0
   -1.8022   -0.7245    0.9247 C   0  0  0  0  0  0  0  0  0  0  0  0
   -1.8868   -1.9291    0.1556 C   0  0  0  0  0  0  0  0  0  0  0  0
   -9.8339   -3.2282    0.4663 C   0  0  0  0  0  0  0  0  0  0  0  0
   -8.5470   -3.1171    2.5080 C   0  0  0  0  0  0  0  0  0  0  0  0
   -9.8824    1.5499    1.8094 C   0  0  0  0  0  0  0  0  0  0  0  0
  -10.5423    0.8668    4.0309 C   0  0  0  0  0  0  0  0  0  0  0  0
   -3.8586    0.6897    3.5356 C   0  0  0  0  0  0  0  0  0  0  0  0
   -2.7685   -0.4315    1.8936 C   0  0  0  0  0  0  0  0  0  0  0  0
   -8.3292    1.7572    3.6483 C   0  0  0  0  0  0  0  0  0  0  0  0
  -10.8401    1.0254    2.6774 C   0  0  0  0  0  0  0  0  0  0  0  0
   -4.5471   -0.4724    3.2738 C   0  0  0  0  0  0  0  0  0  0  0  0
   -1.8839   -3.2814    0.5468 C   0  0  0  0  0  0  0  0  0  0  0  0
   -1.9906   -1.9680   -1.2134 C   0  0  0  0  0  0  0  0  0  0  0  0
  -10.5099   -2.5602   -0.6345 C   0  0  0  0  0  0  0  0  0  0  0  0
   -5.7447   -0.9595    3.8843 C   0  0  0  0  0  0  0  0  0  0  0  0
  -10.1573    1.7377    0.3518 C   0  0  0  0  0  0  0  0  0  0  0  0
  -11.5374    0.3091    4.9974 C   0  0  0  0  0  0  0  0  0  0  0  0
   -1.7894   -3.8298    1.9118 C   0  0  0  0  0  0  0  0  0  0  0  0
   -2.0461   -0.8941   -2.2255 C   0  0  0  0  0  0  0  0  0  0  0  0
   -2.1522   -3.8474   -2.8740 C   0  0  0  0  0  0  0  0  0  0  0  0
   -4.2232    1.7159    4.5359 C   0  0  0  0  0  0  0  0  0  0  0  0
   -7.8590   -2.3075    3.5689 C   0  0  0  0  0  0  0  0  0  0  0  0
   -4.8659    2.9608    3.8971 C   0  0  0  0  0  0  0  0  0  0  0  0
   -6.1721    2.6436    3.1825 C   0  0  0  0  0  0  0  0  0  0  0  0
   -1.9786   -4.1183   -0.4899 N   0  0  0  0  0  0  0  0  0  0  0  0
   -3.8818   -1.1421    2.2822 N   0  0  0  0  0  0  0  0  0  0  0  0
   -2.0420   -3.2897   -1.5460 N   0  0  0  0  0  0  0  0  0  0  0  0
   -6.6048   -1.7604    3.1035 N   0  0  0  0  0  0  0  0  0  0  0  0
  -11.0410   -1.4462   -0.5784 O   0  0  0  0  0  0  0  0  0  0  0  0
   -6.0400   -0.6713    5.0711 O   0  0  0  0  0  0  0  0  0  0  0  0
  -10.5030   -3.3015   -1.7762 O   0  5  0  0  0  0  0  0  0  0  0  0
   -7.0954    2.1169    4.1252 O   0  0  0  0  0  0  0  0  0  0  0  0
  -12.3986    0.5710    2.0746 Cl  0  0  0  0  0  0  0  0  0  0  0  0
    0.1110    2.0660    1.3470 H   0  0  0  0  0  0  0  0  0  0  0  0
   -9.1697   -6.3470    1.6467 H   0  0  0  0  0  0  0  0  0  0  0  0
   -1.6149    2.5582    3.0531 H   0  0  0  0  0  0  0  0  0  0  0  0
    0.0074    0.0133    0.0025 H   0  0  0  0  0  0  0  0  0  0  0  0
  -10.3205   -5.2171   -0.2258 H   0  0  0  0  0  0  0  0  0  0  0  0
   -8.0366   -5.0181    3.3979 H   0  0  0  0  0  0  0  0  0  0  0  0
   -9.1995   -1.3897    1.3981 H   0  0  0  0  0  0  0  0  0  0  0  0
   -7.8776    2.3249    1.6218 H   0  0  0  0  0  0  0  0  0  0  0  0
   -9.0506    1.1108    5.5705 H   0  0  0  0  0  0  0  0  0  0  0  0
   -9.8776    0.8366   -0.2051 H   0  0  0  0  0  0  0  0  0  0  0  0
  -11.2192    1.9448    0.1739 H   0  0  0  0  0  0  0  0  0  0  0  0
   -9.5932    2.5879   -0.0499 H   0  0  0  0  0  0  0  0  0  0  0  0
  -12.1383    1.1167    5.4298 H   0  0  0  0  0  0  0  0  0  0  0  0
  -12.2096   -0.4034    4.5049 H   0  0  0  0  0  0  0  0  0  0  0  0
  -11.0379   -0.2309    5.8106 H   0  0  0  0  0  0  0  0  0  0  0  0
   -2.7887   -3.9575    2.3609 H   0  0  0  0  0  0  0  0  0  0  0  0
   -1.2870   -4.8129    1.9311 H   0  0  0  0  0  0  0  0  0  0  0  0
   -1.2033   -3.1770    2.5824 H   0  0  0  0  0  0  0  0  0  0  0  0
   -1.0358   -0.6254   -2.5746 H   0  0  0  0  0  0  0  0  0  0  0  0
   -2.6389   -1.1884   -3.1081 H   0  0  0  0  0  0  0  0  0  0  0  0
   -2.5195    0.0211   -1.8313 H   0  0  0  0  0  0  0  0  0  0  0  0
   -1.1412   -3.9985   -3.2614 H   0  0  0  0  0  0  0  0  0  0  0  0
   -2.6894   -4.7988   -2.8260 H   0  0  0  0  0  0  0  0  0  0  0  0
   -2.7076   -3.1544   -3.5121 H   0  0  0  0  0  0  0  0  0  0  0  0
   -3.3381    2.0382    5.1190 H   0  0  0  0  0  0  0  0  0  0  0  0
   -4.9241    1.3073    5.2903 H   0  0  0  0  0  0  0  0  0  0  0  0
   -8.4925   -1.4734    3.8896 H   0  0  0  0  0  0  0  0  0  0  0  0
   -7.6504   -2.9167    4.4546 H   0  0  0  0  0  0  0  0  0  0  0  0
   -4.1668    3.4221    3.1872 H   0  0  0  0  0  0  0  0  0  0  0  0
   -5.0483    3.7246    4.6645 H   0  0  0  0  0  0  0  0  0  0  0  0
   -6.6043    3.5467    2.7394 H   0  0  0  0  0  0  0  0  0  0  0  0
   -6.0157    1.8995    2.3950 H   0  0  0  0  0  0  0  0  0  0  0  0
   -4.1672   -2.0294    1.8911 H   0  0  0  0  0  0  0  0  0  0  0  0
   -6.3647   -1.9195    2.1305 H   0  0  0  0  0  0  0  0  0  0  0  0
  1  3  2  0  0  0  0
  1  4  1  0  0  0  0
  2  5  1  0  0  0  0
  2  6  2  0  0  0  0
  3 10  1  0  0  0  0
  4 11  2  0  0  0  0
  5 13  2  0  0  0  0
  6 14  1  0  0  0  0
  7 13  1  0  0  0  0
  7 14  2  0  0  0  0
  8 15  1  0  0  0  0
  8 19  2  0  0  0  0
  9 16  2  0  0  0  0
  9 19  1  0  0  0  0
 10 17  1  0  0  0  0
 10 18  2  0  0  0  0
 11 12  1  0  0  0  0
 11 18  1  0  0  0  0
 12 22  1  0  0  0  0
 12 23  2  0  0  0  0
 13 24  1  0  0  0  0
 14 32  1  0  0  0  0
 15 20  2  0  0  0  0
 15 26  1  0  0  0  0
 16 20  1  0  0  0  0
 16 27  1  0  0  0  0
 17 21  2  0  0  0  0
 17 31  1  0  0  0  0
 18 36  1  0  0  0  0
 19 42  1  0  0  0  0
 20 43  1  0  0  0  0
 21 25  1  0  0  0  0
 21 36  1  0  0  0  0
 22 28  1  0  0  0  0
 22 35  2  0  0  0  0
 23 29  1  0  0  0  0
 23 37  1  0  0  0  0
 24 39  2  0  0  0  0
 24 41  1  0  0  0  0
 25 38  1  0  0  0  0
 25 40  2  0  0  0  0
 30 37  1  0  0  0  0
 31 33  1  0  0  0  0
 32 38  1  0  0  0  0
 33 34  1  0  0  0  0
 34 42  1  0  0  0  0
 35 37  1  0  0  0  0
  1 44  1  0  0  0  0
  2 45  1  0  0  0  0
  3 46  1  0  0  0  0
  4 47  1  0  0  0  0
  5 48  1  0  0  0  0
  6 49  1  0  0  0  0
  7 50  1  0  0  0  0
  8 51  1  0  0  0  0
  9 52  1  0  0  0  0
 26 53  1  0  0  0  0
 26 54  1  0  0  0  0
 26 55  1  0  0  0  0
 27 56  1  0  0  0  0
 27 57  1  0  0  0  0
 27 58  1  0  0  0  0
 28 59  1  0  0  0  0
 28 60  1  0  0  0  0
 28 61  1  0  0  0  0
 29 62  1  0  0  0  0
 29 63  1  0  0  0  0
 29 64  1  0  0  0  0
 30 65  1  0  0  0  0
 30 66  1  0  0  0  0
 30 67  1  0  0  0  0
 31 68  1  0  0  0  0
 31 69  1  0  0  0  0
 32 70  1  0  0  0  0
 32 71  1  0  0  0  0
 33 72  1  0  0  0  0
 33 73  1  0  0  0  0
 34 74  1  0  0  0  0
 34 75  1  0  0  0  0
 36 76  1  0  0  0  0
 38 77  1  0  0  0  0
M  CHG  1  41  -1
M  END
> <Molecule Name>
cmp_8

> <mmff94s_NoEstat>
107.93

> <Ki_nM>
72

$$$$
cmp_9
  -OEChem-07021816373D

 77 81  0     0  0  0  0  0  0999 V2000
   -9.1773   -5.2619    1.5913 C   0  0  0  0  0  0  0  0  0  0  0  0
   -1.6773    1.6439    2.4698 C   0  0  0  0  0  0  0  0  0  0  0  0
   -9.8238   -4.6214    0.5342 C   0  0  0  0  0  0  0  0  0  0  0  0
   -8.5389   -4.5093    2.5771 C   0  0  0  0  0  0  0  0  0  0  0  0
   -0.7036    1.3640    1.5041 C   0  0  0  0  0  0  0  0  0  0  0  0
   -9.1935   -2.4758    1.4487 C   0  0  0  0  0  0  0  0  0  0  0  0
   -8.6270    1.9160    2.2946 C   0  0  0  0  0  0  0  0  0  0  0  0
   -9.2871    1.2323    4.5159 C   0  0  0  0  0  0  0  0  0  0  0  0
   -2.7304    0.7292    2.6692 C   0  0  0  0  0  0  0  0  0  0  0  0
   -1.8022   -0.7245    0.9247 C   0  0  0  0  0  0  0  0  0  0  0  0
   -1.9210   -1.9434    0.1756 C   0  0  0  0  0  0  0  0  0  0  0  0
   -9.8319   -3.2284    0.4629 C   0  0  0  0  0  0  0  0  0  0  0  0
   -8.5471   -3.1163    2.5058 C   0  0  0  0  0  0  0  0  0  0  0  0
   -9.8823    1.5501    1.8090 C   0  0  0  0  0  0  0  0  0  0  0  0
  -10.5425    0.8665    4.0302 C   0  0  0  0  0  0  0  0  0  0  0  0
   -3.8586    0.6897    3.5356 C   0  0  0  0  0  0  0  0  0  0  0  0
   -2.7685   -0.4315    1.8936 C   0  0  0  0  0  0  0  0  0  0  0  0
   -8.3293    1.7570    3.6481 C   0  0  0  0  0  0  0  0  0  0  0  0
   -0.7671    0.1975    0.7446 C   0  0  0  0  0  0  0  0  0  0  0  0
  -10.8401    1.0254    2.6767 C   0  0  0  0  0  0  0  0  0  0  0  0
   -4.5471   -0.4724    3.2738 C   0  0  0  0  0  0  0  0  0  0  0  0
   -1.4193   -3.2356    0.4211 C   0  0  0  0  0  0  0  0  0  0  0  0
   -2.6017   -2.0592   -1.0118 C   0  0  0  0  0  0  0  0  0  0  0  0
  -10.5066   -2.5610   -0.6391 C   0  0  0  0  0  0  0  0  0  0  0  0
   -5.7455   -0.9586    3.8834 C   0  0  0  0  0  0  0  0  0  0  0  0
  -10.1572    1.7384    0.3514 C   0  0  0  0  0  0  0  0  0  0  0  0
  -11.5376    0.3084    4.9965 C   0  0  0  0  0  0  0  0  0  0  0  0
   -0.6061   -3.6901    1.5633 C   0  0  0  0  0  0  0  0  0  0  0  0
   -3.3538   -1.0731   -1.8135 C   0  0  0  0  0  0  0  0  0  0  0  0
   -3.0143   -3.9807   -2.5781 C   0  0  0  0  0  0  0  0  0  0  0  0
   -4.2233    1.7156    4.5361 C   0  0  0  0  0  0  0  0  0  0  0  0
   -7.8599   -2.3062    3.5668 C   0  0  0  0  0  0  0  0  0  0  0  0
   -4.8661    2.9606    3.8976 C   0  0  0  0  0  0  0  0  0  0  0  0
   -6.1723    2.6437    3.1827 C   0  0  0  0  0  0  0  0  0  0  0  0
   -1.7531   -4.1082   -0.5334 N   0  0  0  0  0  0  0  0  0  0  0  0
   -3.8818   -1.1421    2.2822 N   0  0  0  0  0  0  0  0  0  0  0  0
   -2.4718   -3.3630   -1.3903 N   0  0  0  0  0  0  0  0  0  0  0  0
   -6.6051   -1.7599    3.1023 N   0  0  0  0  0  0  0  0  0  0  0  0
  -11.0374   -1.4468   -0.5843 O   0  0  0  0  0  0  0  0  0  0  0  0
   -6.0418   -0.6695    5.0697 O   0  0  0  0  0  0  0  0  0  0  0  0
  -10.4988   -3.3031   -1.7803 O   0  5  0  0  0  0  0  0  0  0  0  0
   -7.0956    2.1166    4.1252 O   0  0  0  0  0  0  0  0  0  0  0  0
    0.4784   -0.0707   -0.4286 Cl  0  0  0  0  0  0  0  0  0  0  0  0
  -12.3985    0.5712    2.0737 Cl  0  0  0  0  0  0  0  0  0  0  0  0
   -9.1700   -6.3466    1.6462 H   0  0  0  0  0  0  0  0  0  0  0  0
   -1.6144    2.5579    3.0534 H   0  0  0  0  0  0  0  0  0  0  0  0
  -10.3185   -5.2177   -0.2284 H   0  0  0  0  0  0  0  0  0  0  0  0
   -8.0382   -5.0168    3.3975 H   0  0  0  0  0  0  0  0  0  0  0  0
    0.1049    2.0774    1.3603 H   0  0  0  0  0  0  0  0  0  0  0  0
   -9.1979   -1.3895    1.3940 H   0  0  0  0  0  0  0  0  0  0  0  0
   -7.8775    2.3253    1.6218 H   0  0  0  0  0  0  0  0  0  0  0  0
   -9.0508    1.1100    5.5700 H   0  0  0  0  0  0  0  0  0  0  0  0
   -9.8774    0.8375   -0.2057 H   0  0  0  0  0  0  0  0  0  0  0  0
  -11.2190    1.9455    0.1734 H   0  0  0  0  0  0  0  0  0  0  0  0
   -9.5930    2.5887   -0.0500 H   0  0  0  0  0  0  0  0  0  0  0  0
  -12.1386    1.1159    5.4291 H   0  0  0  0  0  0  0  0  0  0  0  0
  -12.2097   -0.4039    4.5037 H   0  0  0  0  0  0  0  0  0  0  0  0
  -11.0382   -0.2318    5.8095 H   0  0  0  0  0  0  0  0  0  0  0  0
   -1.2431   -4.0479    2.3898 H   0  0  0  0  0  0  0  0  0  0  0  0
    0.0753   -4.5138    1.2870 H   0  0  0  0  0  0  0  0  0  0  0  0
    0.0370   -2.8859    1.9621 H   0  0  0  0  0  0  0  0  0  0  0  0
   -2.6976   -0.5725   -2.5438 H   0  0  0  0  0  0  0  0  0  0  0  0
   -4.1825   -1.5404   -2.3718 H   0  0  0  0  0  0  0  0  0  0  0  0
   -3.8124   -0.2921   -1.1835 H   0  0  0  0  0  0  0  0  0  0  0  0
   -2.2725   -3.8873   -3.3757 H   0  0  0  0  0  0  0  0  0  0  0  0
   -3.2276   -5.0340   -2.3758 H   0  0  0  0  0  0  0  0  0  0  0  0
   -3.9427   -3.4744   -2.8568 H   0  0  0  0  0  0  0  0  0  0  0  0
   -3.3383    2.0379    5.1194 H   0  0  0  0  0  0  0  0  0  0  0  0
   -4.9243    1.3068    5.2904 H   0  0  0  0  0  0  0  0  0  0  0  0
   -8.4935   -1.4717    3.8863 H   0  0  0  0  0  0  0  0  0  0  0  0
   -7.6524   -2.9149    4.4532 H   0  0  0  0  0  0  0  0  0  0  0  0
   -4.1669    3.4222    3.1879 H   0  0  0  0  0  0  0  0  0  0  0  0
   -5.0486    3.7243    4.6652 H   0  0  0  0  0  0  0  0  0  0  0  0
   -6.6044    3.5468    2.7399 H   0  0  0  0  0  0  0  0  0  0  0  0
   -6.0158    1.8997    2.3951 H   0  0  0  0  0  0  0  0  0  0  0  0
   -4.1670   -2.0299    1.8921 H   0  0  0  0  0  0  0  0  0  0  0  0
   -6.3640   -1.9197    2.1296 H   0  0  0  0  0  0  0  0  0  0  0  0
  1  3  1  0  0  0  0
  1  4  2  0  0  0  0
  2  5  2  0  0  0  0
  2  9  1  0  0  0  0
  3 12  2  0  0  0  0
  4 13  1  0  0  0  0
  5 19  1  0  0  0  0
  6 12  1  0  0  0  0
  6 13  2  0  0  0  0
  7 14  1  0  0  0  0
  7 18  2  0  0  0  0
  8 15  2  0  0  0  0
  8 18  1  0  0  0  0
  9 16  1  0  0  0  0
  9 17  2  0  0  0  0
 10 11  1  0  0  0  0
 10 17  1  0  0  0  0
 10 19  2  0  0  0  0
 11 22  1  0  0  0  0
 11 23  2  0  0  0  0
 12 24  1  0  0  0  0
 13 32  1  0  0  0  0
 14 20  2  0  0  0  0
 14 26  1  0  0  0  0
 15 20  1  0  0  0  0
 15 27  1  0  0  0  0
 16 21  2  0  0  0  0
 16 31  1  0  0  0  0
 17 36  1  0  0  0  0
 18 42  1  0  0  0  0
 19 43  1  0  0  0  0
 20 44  1  0  0  0  0
 21 25  1  0  0  0  0
 21 36  1  0  0  0  0
 22 28  1  0  0  0  0
 22 35  2  0  0  0  0
 23 29  1  0  0  0  0
 23 37  1  0  0  0  0
 24 39  2  0  0  0  0
 24 41  1  0  0  0  0
 25 38  1  0  0  0  0
 25 40  2  0  0  0  0
 30 37  1  0  0  0  0
 31 33  1  0  0  0  0
 32 38  1  0  0  0  0
 33 34  1  0  0  0  0
 34 42  1  0  0  0  0
 35 37  1  0  0  0  0
  1 45  1  0  0  0  0
  2 46  1  0  0  0  0
  3 47  1  0  0  0  0
  4 48  1  0  0  0  0
  5 49  1  0  0  0  0
  6 50  1  0  0  0  0
  7 51  1  0  0  0  0
  8 52  1  0  0  0  0
 26 53  1  0  0  0  0
 26 54  1  0  0  0  0
 26 55  1  0  0  0  0
 27 56  1  0  0  0  0
 27 57  1  0  0  0  0
 27 58  1  0  0  0  0
 28 59  1  0  0  0  0
 28 60  1  0  0  0  0
 28 61  1  0  0  0  0
 29 62  1  0  0  0  0
 29 63  1  0  0  0  0
 29 64  1  0  0  0  0
 30 65  1  0  0  0  0
 30 66  1  0  0  0  0
 30 67  1  0  0  0  0
 31 68  1  0  0  0  0
 31 69  1  0  0  0  0
 32 70  1  0  0  0  0
 32 71  1  0  0  0  0
 33 72  1  0  0  0  0
 33 73  1  0  0  0  0
 34 74  1  0  0  0  0
 34 75  1  0  0  0  0
 36 76  1  0  0  0  0
 38 77  1  0  0  0  0
M  CHG  1  41  -1
M  END
> <Molecule Name>
cmp_9

> <mmff94s_NoEstat>
109.66

> <Ki_nM>
20

$$$$
cmp_10
  -OEChem-07021816373D

 76 80  0     0  0  0  0  0  0999 V2000
   -0.7036    1.3640    1.5041 C   0  0  0  0  0  0  0  0  0  0  0  0
   -1.6773    1.6439    2.4698 C   0  0  0  0  0  0  0  0  0  0  0  0
   -0.7671    0.1975    0.7446 C   0  0  0  0  0  0  0  0  0  0  0  0
   -9.7185   -4.7420    0.6523 C   0  0  0  0  0  0  0  0  0  0  0  0
   -9.1561   -2.5453    1.4538 C   0  0  0  0  0  0  0  0  0  0  0  0
   -8.6270    1.9158    2.2948 C   0  0  0  0  0  0  0  0  0  0  0  0
   -9.2869    1.2327    4.5163 C   0  0  0  0  0  0  0  0  0  0  0  0
   -9.0607   -5.2552    1.7586 C   0  0  0  0  0  0  0  0  0  0  0  0
   -2.7304    0.7292    2.6692 C   0  0  0  0  0  0  0  0  0  0  0  0
   -1.8022   -0.7245    0.9247 C   0  0  0  0  0  0  0  0  0  0  0  0
   -1.8868   -1.9291    0.1556 C   0  0  0  0  0  0  0  0  0  0  0  0
   -9.7625   -3.3602    0.5044 C   0  0  0  0  0  0  0  0  0  0  0  0
   -9.8824    1.5499    1.8094 C   0  0  0  0  0  0  0  0  0  0  0  0
  -10.5423    0.8668    4.0309 C   0  0  0  0  0  0  0  0  0  0  0  0
   -3.8586    0.6897    3.5356 C   0  0  0  0  0  0  0  0  0  0  0  0
   -2.7685   -0.4315    1.8936 C   0  0  0  0  0  0  0  0  0  0  0  0
   -8.3292    1.7572    3.6483 C   0  0  0  0  0  0  0  0  0  0  0  0
  -10.8401    1.0254    2.6774 C   0  0  0  0  0  0  0  0  0  0  0  0
   -4.5471   -0.4724    3.2738 C   0  0  0  0  0  0  0  0  0  0  0  0
   -8.5236   -3.1568    2.5243 C   0  0  0  0  0  0  0  0  0  0  0  0
   -1.8839   -3.2814    0.5468 C   0  0  0  0  0  0  0  0  0  0  0  0
   -1.9906   -1.9680   -1.2134 C   0  0  0  0  0  0  0  0  0  0  0  0
  -10.4417   -2.7704   -0.6380 C   0  0  0  0  0  0  0  0  0  0  0  0
   -5.7447   -0.9595    3.8843 C   0  0  0  0  0  0  0  0  0  0  0  0
  -10.1573    1.7377    0.3518 C   0  0  0  0  0  0  0  0  0  0  0  0
  -11.5374    0.3091    4.9974 C   0  0  0  0  0  0  0  0  0  0  0  0
   -1.7894   -3.8298    1.9118 C   0  0  0  0  0  0  0  0  0  0  0  0
   -2.0461   -0.8941   -2.2255 C   0  0  0  0  0  0  0  0  0  0  0  0
   -2.1522   -3.8474   -2.8740 C   0  0  0  0  0  0  0  0  0  0  0  0
   -4.2232    1.7159    4.5359 C   0  0  0  0  0  0  0  0  0  0  0  0
   -7.8590   -2.3075    3.5689 C   0  0  0  0  0  0  0  0  0  0  0  0
   -4.8659    2.9608    3.8971 C   0  0  0  0  0  0  0  0  0  0  0  0
   -6.1721    2.6436    3.1825 C   0  0  0  0  0  0  0  0  0  0  0  0
   -8.4600   -4.4955    2.7017 N   0  0  0  0  0  0  0  0  0  0  0  0
   -1.9786   -4.1183   -0.4899 N   0  0  0  0  0  0  0  0  0  0  0  0
   -3.8818   -1.1421    2.2822 N   0  0  0  0  0  0  0  0  0  0  0  0
   -2.0420   -3.2897   -1.5460 N   0  0  0  0  0  0  0  0  0  0  0  0
   -6.6048   -1.7604    3.1035 N   0  0  0  0  0  0  0  0  0  0  0  0
  -11.0014   -1.6689   -0.6484 O   0  0  0  0  0  0  0  0  0  0  0  0
   -6.0400   -0.6713    5.0711 O   0  0  0  0  0  0  0  0  0  0  0  0
  -10.4026   -3.5719   -1.7378 O   0  5  0  0  0  0  0  0  0  0  0  0
   -7.0954    2.1169    4.1252 O   0  0  0  0  0  0  0  0  0  0  0  0
  -12.3986    0.5710    2.0746 Cl  0  0  0  0  0  0  0  0  0  0  0  0
    0.1110    2.0660    1.3470 H   0  0  0  0  0  0  0  0  0  0  0  0
   -1.6149    2.5582    3.0531 H   0  0  0  0  0  0  0  0  0  0  0  0
    0.0074    0.0133    0.0025 H   0  0  0  0  0  0  0  0  0  0  0  0
  -10.1805   -5.4058   -0.0708 H   0  0  0  0  0  0  0  0  0  0  0  0
   -9.1780   -1.4639    1.3606 H   0  0  0  0  0  0  0  0  0  0  0  0
   -7.8776    2.3249    1.6218 H   0  0  0  0  0  0  0  0  0  0  0  0
   -9.0506    1.1108    5.5705 H   0  0  0  0  0  0  0  0  0  0  0  0
   -8.9983   -6.3265    1.9196 H   0  0  0  0  0  0  0  0  0  0  0  0
   -9.8776    0.8366   -0.2051 H   0  0  0  0  0  0  0  0  0  0  0  0
  -11.2192    1.9448    0.1739 H   0  0  0  0  0  0  0  0  0  0  0  0
   -9.5932    2.5879   -0.0499 H   0  0  0  0  0  0  0  0  0  0  0  0
  -12.1383    1.1167    5.4298 H   0  0  0  0  0  0  0  0  0  0  0  0
  -12.2096   -0.4034    4.5049 H   0  0  0  0  0  0  0  0  0  0  0  0
  -11.0379   -0.2309    5.8106 H   0  0  0  0  0  0  0  0  0  0  0  0
   -2.7887   -3.9575    2.3609 H   0  0  0  0  0  0  0  0  0  0  0  0
   -1.2870   -4.8129    1.9311 H   0  0  0  0  0  0  0  0  0  0  0  0
   -1.2033   -3.1770    2.5824 H   0  0  0  0  0  0  0  0  0  0  0  0
   -1.0358   -0.6254   -2.5746 H   0  0  0  0  0  0  0  0  0  0  0  0
   -2.6389   -1.1884   -3.1081 H   0  0  0  0  0  0  0  0  0  0  0  0
   -2.5195    0.0211   -1.8313 H   0  0  0  0  0  0  0  0  0  0  0  0
   -1.1412   -3.9985   -3.2614 H   0  0  0  0  0  0  0  0  0  0  0  0
   -2.6894   -4.7988   -2.8260 H   0  0  0  0  0  0  0  0  0  0  0  0
   -2.7076   -3.1544   -3.5121 H   0  0  0  0  0  0  0  0  0  0  0  0
   -3.3381    2.0382    5.1190 H   0  0  0  0  0  0  0  0  0  0  0  0
   -4.9241    1.3073    5.2903 H   0  0  0  0  0  0  0  0  0  0  0  0
   -8.5060   -1.4714    3.8557 H   0  0  0  0  0  0  0  0  0  0  0  0
   -7.6555   -2.8871    4.4755 H   0  0  0  0  0  0  0  0  0  0  0  0
   -4.1668    3.4221    3.1872 H   0  0  0  0  0  0  0  0  0  0  0  0
   -5.0483    3.7246    4.6645 H   0  0  0  0  0  0  0  0  0  0  0  0
   -6.6043    3.5467    2.7394 H   0  0  0  0  0  0  0  0  0  0  0  0
   -6.0157    1.8995    2.3950 H   0  0  0  0  0  0  0  0  0  0  0  0
   -4.1672   -2.0294    1.8911 H   0  0  0  0  0  0  0  0  0  0  0  0
   -6.3647   -1.9195    2.1305 H   0  0  0  0  0  0  0  0  0  0  0  0
  1  2  2  0  0  0  0
  1  3  1  0  0  0  0
  2  9  1  0  0  0  0
  3 10  2  0  0  0  0
  4  8  1  0  0  0  0
  4 12  2  0  0  0  0
  5 12  1  0  0  0  0
  5 20  2  0  0  0  0
  6 13  1  0  0  0  0
  6 17  2  0  0  0  0
  7 14  2  0  0  0  0
  7 17  1  0  0  0  0
  8 34  2  0  0  0  0
  9 15  1  0  0  0  0
  9 16  2  0  0  0  0
 10 11  1  0  0  0  0
 10 16  1  0  0  0  0
 11 21  1  0  0  0  0
 11 22  2  0  0  0  0
 12 23  1  0  0  0  0
 13 18  2  0  0  0  0
 13 25  1  0  0  0  0
 14 18  1  0  0  0  0
 14 26  1  0  0  0  0
 15 19  2  0  0  0  0
 15 30  1  0  0  0  0
 16 36  1  0  0  0  0
 17 42  1  0  0  0  0
 18 43  1  0  0  0  0
 19 24  1  0  0  0  0
 19 36  1  0  0  0  0
 20 31  1  0  0  0  0
 20 34  1  0  0  0  0
 21 27  1  0  0  0  0
 21 35  2  0  0  0  0
 22 28  1  0  0  0  0
 22 37  1  0  0  0  0
 23 39  2  0  0  0  0
 23 41  1  0  0  0  0
 24 38  1  0  0  0  0
 24 40  2  0  0  0  0
 29 37  1  0  0  0  0
 30 32  1  0  0  0  0
 31 38  1  0  0  0  0
 32 33  1  0  0  0  0
 33 42  1  0  0  0  0
 35 37  1  0  0  0  0
  1 44  1  0  0  0  0
  2 45  1  0  0  0  0
  3 46  1  0  0  0  0
  4 47  1  0  0  0  0
  5 48  1  0  0  0  0
  6 49  1  0  0  0  0
  7 50  1  0  0  0  0
  8 51  1  0  0  0  0
 25 52  1  0  0  0  0
 25 53  1  0  0  0  0
 25 54  1  0  0  0  0
 26 55  1  0  0  0  0
 26 56  1  0  0  0  0
 26 57  1  0  0  0  0
 27 58  1  0  0  0  0
 27 59  1  0  0  0  0
 27 60  1  0  0  0  0
 28 61  1  0  0  0  0
 28 62  1  0  0  0  0
 28 63  1  0  0  0  0
 29 64  1  0  0  0  0
 29 65  1  0  0  0  0
 29 66  1  0  0  0  0
 30 67  1  0  0  0  0
 30 68  1  0  0  0  0
 31 69  1  0  0  0  0
 31 70  1  0  0  0  0
 32 71  1  0  0  0  0
 32 72  1  0  0  0  0
 33 73  1  0  0  0  0
 33 74  1  0  0  0  0
 36 75  1  0  0  0  0
 38 76  1  0  0  0  0
M  CHG  1  41  -1
M  END
> <Molecule Name>
cmp_10

> <mmff94s_NoEstat>
107.22

> <Ki_nM>
41

$$$$
cmp_11
  -OEChem-07021816373D

 77 81  0     0  0  0  0  0  0999 V2000
   -0.7036    1.3640    1.5041 C   0  0  0  0  0  0  0  0  0  0  0  0
   -1.6773    1.6439    2.4698 C   0  0  0  0  0  0  0  0  0  0  0  0
   -0.7671    0.1975    0.7446 C   0  0  0  0  0  0  0  0  0  0  0  0
   -9.8742   -2.2412    1.0598 C   0  0  0  0  0  0  0  0  0  0  0  0
  -10.8565   -1.3365    3.0732 C   0  0  0  0  0  0  0  0  0  0  0  0
   -8.7501   -2.6355    1.7853 C   0  0  0  0  0  0  0  0  0  0  0  0
   -9.7323   -1.7309    3.7988 C   0  0  0  0  0  0  0  0  0  0  0  0
   -8.8814    2.4574    2.5660 C   0  0  0  0  0  0  0  0  0  0  0  0
   -9.3231    2.4465    4.9413 C   0  0  0  0  0  0  0  0  0  0  0  0
   -2.7304    0.7292    2.6692 C   0  0  0  0  0  0  0  0  0  0  0  0
   -1.8022   -0.7245    0.9247 C   0  0  0  0  0  0  0  0  0  0  0  0
   -1.8868   -1.9291    0.1556 C   0  0  0  0  0  0  0  0  0  0  0  0
  -10.9274   -1.5916    1.7037 C   0  0  0  0  0  0  0  0  0  0  0  0
   -8.6791   -2.3804    3.1548 C   0  0  0  0  0  0  0  0  0  0  0  0
  -10.2347    2.6834    2.3153 C   0  0  0  0  0  0  0  0  0  0  0  0
  -10.6765    2.6726    4.6906 C   0  0  0  0  0  0  0  0  0  0  0  0
   -3.8586    0.6897    3.5356 C   0  0  0  0  0  0  0  0  0  0  0  0
   -2.7685   -0.4315    1.8936 C   0  0  0  0  0  0  0  0  0  0  0  0
   -8.4255    2.3389    3.8790 C   0  0  0  0  0  0  0  0  0  0  0  0
  -11.1323    2.7910    3.3776 C   0  0  0  0  0  0  0  0  0  0  0  0
   -4.5471   -0.4724    3.2738 C   0  0  0  0  0  0  0  0  0  0  0  0
   -1.8839   -3.2814    0.5468 C   0  0  0  0  0  0  0  0  0  0  0  0
   -1.9906   -1.9680   -1.2134 C   0  0  0  0  0  0  0  0  0  0  0  0
  -12.1003   -1.1804    0.9483 C   0  0  0  0  0  0  0  0  0  0  0  0
   -5.7447   -0.9595    3.8843 C   0  0  0  0  0  0  0  0  0  0  0  0
  -10.6781    2.8039    0.8926 C   0  0  0  0  0  0  0  0  0  0  0  0
  -11.6021    2.7810    5.8598 C   0  0  0  0  0  0  0  0  0  0  0  0
   -1.7894   -3.8298    1.9118 C   0  0  0  0  0  0  0  0  0  0  0  0
   -2.0461   -0.8941   -2.2255 C   0  0  0  0  0  0  0  0  0  0  0  0
   -2.1522   -3.8474   -2.8740 C   0  0  0  0  0  0  0  0  0  0  0  0
   -4.2232    1.7159    4.5359 C   0  0  0  0  0  0  0  0  0  0  0  0
   -7.4694   -2.8060    3.9355 C   0  0  0  0  0  0  0  0  0  0  0  0
   -4.8659    2.9608    3.8971 C   0  0  0  0  0  0  0  0  0  0  0  0
   -6.1721    2.6436    3.1825 C   0  0  0  0  0  0  0  0  0  0  0  0
   -1.9786   -4.1183   -0.4899 N   0  0  0  0  0  0  0  0  0  0  0  0
   -3.8818   -1.1421    2.2822 N   0  0  0  0  0  0  0  0  0  0  0  0
   -2.0420   -3.2897   -1.5460 N   0  0  0  0  0  0  0  0  0  0  0  0
   -6.2597   -2.1939    3.4348 N   0  0  0  0  0  0  0  0  0  0  0  0
  -12.2691   -1.3550   -0.2630 O   0  0  0  0  0  0  0  0  0  0  0  0
   -6.3377   -0.3058    4.7786 O   0  0  0  0  0  0  0  0  0  0  0  0
  -13.0309   -0.5635    1.7270 O   0  5  0  0  0  0  0  0  0  0  0  0
   -7.0954    2.1169    4.1252 O   0  0  0  0  0  0  0  0  0  0  0  0
  -12.8126    3.0715    3.0663 Cl  0  0  0  0  0  0  0  0  0  0  0  0
    0.1110    2.0660    1.3470 H   0  0  0  0  0  0  0  0  0  0  0  0
   -1.6149    2.5582    3.0531 H   0  0  0  0  0  0  0  0  0  0  0  0
    0.0074    0.0133    0.0025 H   0  0  0  0  0  0  0  0  0  0  0  0
   -9.9197   -2.4447   -0.0069 H   0  0  0  0  0  0  0  0  0  0  0  0
  -11.6710   -0.8311    3.5855 H   0  0  0  0  0  0  0  0  0  0  0  0
   -7.9344   -3.1412    1.2756 H   0  0  0  0  0  0  0  0  0  0  0  0
   -9.6856   -1.5285    4.8657 H   0  0  0  0  0  0  0  0  0  0  0  0
   -8.1783    2.3729    1.7411 H   0  0  0  0  0  0  0  0  0  0  0  0
   -8.9636    2.3535    5.9631 H   0  0  0  0  0  0  0  0  0  0  0  0
  -10.9532    1.8198    0.4975 H   0  0  0  0  0  0  0  0  0  0  0  0
  -11.5429    3.4720    0.8038 H   0  0  0  0  0  0  0  0  0  0  0  0
   -9.8827    3.2241    0.2656 H   0  0  0  0  0  0  0  0  0  0  0  0
  -11.6733    3.8230    6.1904 H   0  0  0  0  0  0  0  0  0  0  0  0
  -12.6067    2.4251    5.6023 H   0  0  0  0  0  0  0  0  0  0  0  0
  -11.2508    2.1694    6.6993 H   0  0  0  0  0  0  0  0  0  0  0  0
   -2.7887   -3.9575    2.3609 H   0  0  0  0  0  0  0  0  0  0  0  0
   -1.2870   -4.8129    1.9311 H   0  0  0  0  0  0  0  0  0  0  0  0
   -1.2033   -3.1770    2.5824 H   0  0  0  0  0  0  0  0  0  0  0  0
   -1.0358   -0.6254   -2.5746 H   0  0  0  0  0  0  0  0  0  0  0  0
   -2.6389   -1.1884   -3.1081 H   0  0  0  0  0  0  0  0  0  0  0  0
   -2.5195    0.0211   -1.8313 H   0  0  0  0  0  0  0  0  0  0  0  0
   -1.1412   -3.9985   -3.2614 H   0  0  0  0  0  0  0  0  0  0  0  0
   -2.6894   -4.7988   -2.8260 H   0  0  0  0  0  0  0  0  0  0  0  0
   -2.7076   -3.1544   -3.5121 H   0  0  0  0  0  0  0  0  0  0  0  0
   -3.3381    2.0382    5.1190 H   0  0  0  0  0  0  0  0  0  0  0  0
   -4.9241    1.3073    5.2903 H   0  0  0  0  0  0  0  0  0  0  0  0
   -7.5746   -2.5314    4.9907 H   0  0  0  0  0  0  0  0  0  0  0  0
   -7.3370   -3.8923    3.8938 H   0  0  0  0  0  0  0  0  0  0  0  0
   -4.1668    3.4221    3.1872 H   0  0  0  0  0  0  0  0  0  0  0  0
   -5.0483    3.7246    4.6645 H   0  0  0  0  0  0  0  0  0  0  0  0
   -6.6043    3.5467    2.7394 H   0  0  0  0  0  0  0  0  0  0  0  0
   -6.0157    1.8995    2.3950 H   0  0  0  0  0  0  0  0  0  0  0  0
   -4.1672   -2.0294    1.8911 H   0  0  0  0  0  0  0  0  0  0  0  0
   -5.7889   -2.6622    2.6675 H   0  0  0  0  0  0  0  0  0  0  0  0
  1  2  2  0  0  0  0
  1  3  1  0  0  0  0
  2 10  1  0  0  0  0
  3 11  2  0  0  0  0
  4  6  1  0  0  0  0
  4 13  2  0  0  0  0
  5  7  2  0  0  0  0
  5 13  1  0  0  0  0
  6 14  2  0  0  0  0
  7 14  1  0  0  0  0
  8 15  1  0  0  0  0
  8 19  2  0  0  0  0
  9 16  2  0  0  0  0
  9 19  1  0  0  0  0
 10 17  1  0  0  0  0
 10 18  2  0  0  0  0
 11 12  1  0  0  0  0
 11 18  1  0  0  0  0
 12 22  1  0  0  0  0
 12 23  2  0  0  0  0
 13 24  1  0  0  0  0
 14 32  1  0  0  0  0
 15 20  2  0  0  0  0
 15 26  1  0  0  0  0
 16 20  1  0  0  0  0
 16 27  1  0  0  0  0
 17 21  2  0  0  0  0
 17 31  1  0  0  0  0
 18 36  1  0  0  0  0
 19 42  1  0  0  0  0
 20 43  1  0  0  0  0
 21 25  1  0  0  0  0
 21 36  1  0  0  0  0
 22 28  1  0  0  0  0
 22 35  2  0  0  0  0
 23 29  1  0  0  0  0
 23 37  1  0  0  0  0
 24 39  2  0  0  0  0
 24 41  1  0  0  0  0
 25 38  1  0  0  0  0
 25 40  2  0  0  0  0
 30 37  1  0  0  0  0
 31 33  1  0  0  0  0
 32 38  1  0  0  0  0
 33 34  1  0  0  0  0
 34 42  1  0  0  0  0
 35 37  1  0  0  0  0
  1 44  1  0  0  0  0
  2 45  1  0  0  0  0
  3 46  1  0  0  0  0
  4 47  1  0  0  0  0
  5 48  1  0  0  0  0
  6 49  1  0  0  0  0
  7 50  1  0  0  0  0
  8 51  1  0  0  0  0
  9 52  1  0  0  0  0
 26 53  1  0  0  0  0
 26 54  1  0  0  0  0
 26 55  1  0  0  0  0
 27 56  1  0  0  0  0
 27 57  1  0  0  0  0
 27 58  1  0  0  0  0
 28 59  1  0  0  0  0
 28 60  1  0  0  0  0
 28 61  1  0  0  0  0
 29 62  1  0  0  0  0
 29 63  1  0  0  0  0
 29 64  1  0  0  0  0
 30 65  1  0  0  0  0
 30 66  1  0  0  0  0
 30 67  1  0  0  0  0
 31 68  1  0  0  0  0
 31 69  1  0  0  0  0
 32 70  1  0  0  0  0
 32 71  1  0  0  0  0
 33 72  1  0  0  0  0
 33 73  1  0  0  0  0
 34 74  1  0  0  0  0
 34 75  1  0  0  0  0
 36 76  1  0  0  0  0
 38 77  1  0  0  0  0
M  CHG  1  41  -1
M  END
> <Molecule Name>
cmp_11

> <mmff94s_NoEstat>
107.74

> <Ki_nM>
21

$$$$
cmp_12
  -OEChem-07021816373D

 74 78  0     0  0  0  0  0  0999 V2000
   -9.7222   -3.6929    2.6902 C   0  0  0  0  0  0  0  0  0  0  0  0
   -1.6773    1.6439    2.4698 C   0  0  0  0  0  0  0  0  0  0  0  0
  -10.2950   -3.5168    3.9497 C   0  0  0  0  0  0  0  0  0  0  0  0
   -8.4896   -3.1095    2.3968 C   0  0  0  0  0  0  0  0  0  0  0  0
   -0.7036    1.3640    1.5041 C   0  0  0  0  0  0  0  0  0  0  0  0
   -8.4028   -2.1736    4.6224 C   0  0  0  0  0  0  0  0  0  0  0  0
   -8.4660    1.3129    2.3328 C   0  0  0  0  0  0  0  0  0  0  0  0
   -9.4480    1.8352    4.4776 C   0  0  0  0  0  0  0  0  0  0  0  0
   -2.7304    0.7292    2.6692 C   0  0  0  0  0  0  0  0  0  0  0  0
   -1.8022   -0.7245    0.9247 C   0  0  0  0  0  0  0  0  0  0  0  0
   -1.9210   -1.9434    0.1756 C   0  0  0  0  0  0  0  0  0  0  0  0
   -9.6353   -2.7571    4.9158 C   0  0  0  0  0  0  0  0  0  0  0  0
   -9.7213    0.9470    1.8472 C   0  0  0  0  0  0  0  0  0  0  0  0
  -10.7034    1.4694    3.9919 C   0  0  0  0  0  0  0  0  0  0  0  0
   -3.8586    0.6897    3.5356 C   0  0  0  0  0  0  0  0  0  0  0  0
   -2.7685   -0.4315    1.8936 C   0  0  0  0  0  0  0  0  0  0  0  0
   -7.8299   -2.3498    3.3629 C   0  0  0  0  0  0  0  0  0  0  0  0
   -8.3293    1.7570    3.6481 C   0  0  0  0  0  0  0  0  0  0  0  0
   -0.7671    0.1975    0.7446 C   0  0  0  0  0  0  0  0  0  0  0  0
  -10.8400    1.0252    2.6767 C   0  0  0  0  0  0  0  0  0  0  0  0
   -4.5471   -0.4724    3.2738 C   0  0  0  0  0  0  0  0  0  0  0  0
   -1.4193   -3.2356    0.4211 C   0  0  0  0  0  0  0  0  0  0  0  0
   -2.6017   -2.0592   -1.0118 C   0  0  0  0  0  0  0  0  0  0  0  0
  -10.2337   -2.5743    6.2285 C   0  0  0  0  0  0  0  0  0  0  0  0
   -5.7455   -0.9586    3.8834 C   0  0  0  0  0  0  0  0  0  0  0  0
   -9.8204    0.4772    0.4312 C   0  0  0  0  0  0  0  0  0  0  0  0
  -11.8742    1.5693    4.9164 C   0  0  0  0  0  0  0  0  0  0  0  0
   -0.6061   -3.6901    1.5633 C   0  0  0  0  0  0  0  0  0  0  0  0
   -3.3538   -1.0731   -1.8135 C   0  0  0  0  0  0  0  0  0  0  0  0
   -3.0143   -3.9807   -2.5781 C   0  0  0  0  0  0  0  0  0  0  0  0
   -4.2233    1.7156    4.5361 C   0  0  0  0  0  0  0  0  0  0  0  0
   -4.8661    2.9606    3.8976 C   0  0  0  0  0  0  0  0  0  0  0  0
   -6.1723    2.6437    3.1827 C   0  0  0  0  0  0  0  0  0  0  0  0
   -1.7531   -4.1082   -0.5334 N   0  0  0  0  0  0  0  0  0  0  0  0
   -3.8818   -1.1421    2.2822 N   0  0  0  0  0  0  0  0  0  0  0  0
   -2.4718   -3.3630   -1.3903 N   0  0  0  0  0  0  0  0  0  0  0  0
   -6.5770   -1.7572    3.0646 N   0  0  0  0  0  0  0  0  0  0  0  0
  -11.3164   -3.0441    6.5938 O   0  0  0  0  0  0  0  0  0  0  0  0
   -6.0693   -0.6741    5.0588 O   0  0  0  0  0  0  0  0  0  0  0  0
   -9.4627   -1.8105    7.0503 O   0  5  0  0  0  0  0  0  0  0  0  0
   -7.0956    2.1166    4.1252 O   0  0  0  0  0  0  0  0  0  0  0  0
    0.4784   -0.0707   -0.4286 Cl  0  0  0  0  0  0  0  0  0  0  0  0
  -12.3984    0.5708    2.0736 Cl  0  0  0  0  0  0  0  0  0  0  0  0
  -10.2355   -4.2847    1.9379 H   0  0  0  0  0  0  0  0  0  0  0  0
   -1.6144    2.5579    3.0534 H   0  0  0  0  0  0  0  0  0  0  0  0
  -11.2563   -3.9753    4.1664 H   0  0  0  0  0  0  0  0  0  0  0  0
   -8.0526   -3.2529    1.4116 H   0  0  0  0  0  0  0  0  0  0  0  0
    0.1049    2.0774    1.3603 H   0  0  0  0  0  0  0  0  0  0  0  0
   -7.8886   -1.5802    5.3757 H   0  0  0  0  0  0  0  0  0  0  0  0
   -7.5914    1.2534    1.6898 H   0  0  0  0  0  0  0  0  0  0  0  0
   -9.3370    2.1819    5.5020 H   0  0  0  0  0  0  0  0  0  0  0  0
   -9.6833   -0.6087    0.3826 H   0  0  0  0  0  0  0  0  0  0  0  0
  -10.7967    0.7274   -0.0003 H   0  0  0  0  0  0  0  0  0  0  0  0
   -9.0599    0.9555   -0.1974 H   0  0  0  0  0  0  0  0  0  0  0  0
  -12.3323    2.5616    4.8405 H   0  0  0  0  0  0  0  0  0  0  0  0
  -12.6317    0.8137    4.6771 H   0  0  0  0  0  0  0  0  0  0  0  0
  -11.5711    1.4012    5.9567 H   0  0  0  0  0  0  0  0  0  0  0  0
   -1.2431   -4.0479    2.3898 H   0  0  0  0  0  0  0  0  0  0  0  0
    0.0753   -4.5138    1.2870 H   0  0  0  0  0  0  0  0  0  0  0  0
    0.0370   -2.8859    1.9621 H   0  0  0  0  0  0  0  0  0  0  0  0
   -2.6976   -0.5725   -2.5438 H   0  0  0  0  0  0  0  0  0  0  0  0
   -4.1825   -1.5404   -2.3718 H   0  0  0  0  0  0  0  0  0  0  0  0
   -3.8124   -0.2921   -1.1835 H   0  0  0  0  0  0  0  0  0  0  0  0
   -2.2725   -3.8873   -3.3757 H   0  0  0  0  0  0  0  0  0  0  0  0
   -3.2276   -5.0340   -2.3758 H   0  0  0  0  0  0  0  0  0  0  0  0
   -3.9427   -3.4744   -2.8568 H   0  0  0  0  0  0  0  0  0  0  0  0
   -3.3383    2.0379    5.1194 H   0  0  0  0  0  0  0  0  0  0  0  0
   -4.9243    1.3068    5.2904 H   0  0  0  0  0  0  0  0  0  0  0  0
   -4.1669    3.4222    3.1879 H   0  0  0  0  0  0  0  0  0  0  0  0
   -5.0486    3.7243    4.6652 H   0  0  0  0  0  0  0  0  0  0  0  0
   -6.6044    3.5468    2.7399 H   0  0  0  0  0  0  0  0  0  0  0  0
   -6.0158    1.8997    2.3951 H   0  0  0  0  0  0  0  0  0  0  0  0
   -4.1670   -2.0299    1.8921 H   0  0  0  0  0  0  0  0  0  0  0  0
   -6.2256   -1.9316    2.1263 H   0  0  0  0  0  0  0  0  0  0  0  0
  1  3  1  0  0  0  0
  1  4  2  0  0  0  0
  2  5  2  0  0  0  0
  2  9  1  0  0  0  0
  3 12  2  0  0  0  0
  4 17  1  0  0  0  0
  5 19  1  0  0  0  0
  6 12  1  0  0  0  0
  6 17  2  0  0  0  0
  7 13  1  0  0  0  0
  7 18  2  0  0  0  0
  8 14  2  0  0  0  0
  8 18  1  0  0  0  0
  9 15  1  0  0  0  0
  9 16  2  0  0  0  0
 10 11  1  0  0  0  0
 10 16  1  0  0  0  0
 10 19  2  0  0  0  0
 11 22  1  0  0  0  0
 11 23  2  0  0  0  0
 12 24  1  0  0  0  0
 13 20  2  0  0  0  0
 13 26  1  0  0  0  0
 14 20  1  0  0  0  0
 14 27  1  0  0  0  0
 15 21  2  0  0  0  0
 15 31  1  0  0  0  0
 16 35  1  0  0  0  0
 17 37  1  0  0  0  0
 18 41  1  0  0  0  0
 19 42  1  0  0  0  0
 20 43  1  0  0  0  0
 21 25  1  0  0  0  0
 21 35  1  0  0  0  0
 22 28  1  0  0  0  0
 22 34  2  0  0  0  0
 23 29  1  0  0  0  0
 23 36  1  0  0  0  0
 24 38  2  0  0  0  0
 24 40  1  0  0  0  0
 25 37  1  0  0  0  0
 25 39  2  0  0  0  0
 30 36  1  0  0  0  0
 31 32  1  0  0  0  0
 32 33  1  0  0  0  0
 33 41  1  0  0  0  0
 34 36  1  0  0  0  0
  1 44  1  0  0  0  0
  2 45  1  0  0  0  0
  3 46  1  0  0  0  0
  4 47  1  0  0  0  0
  5 48  1  0  0  0  0
  6 49  1  0  0  0  0
  7 50  1  0  0  0  0
  8 51  1  0  0  0  0
 26 52  1  0  0  0  0
 26 53  1  0  0  0  0
 26 54  1  0  0  0  0
 27 55  1  0  0  0  0
 27 56  1  0  0  0  0
 27 57  1  0  0  0  0
 28 58  1  0  0  0  0
 28 59  1  0  0  0  0
 28 60  1  0  0  0  0
 29 61  1  0  0  0  0
 29 62  1  0  0  0  0
 29 63  1  0  0  0  0
 30 64  1  0  0  0  0
 30 65  1  0  0  0  0
 30 66  1  0  0  0  0
 31 67  1  0  0  0  0
 31 68  1  0  0  0  0
 32 69  1  0  0  0  0
 32 70  1  0  0  0  0
 33 71  1  0  0  0  0
 33 72  1  0  0  0  0
 35 73  1  0  0  0  0
 37 74  1  0  0  0  0
M  CHG  1  40  -1
M  END
> <Molecule Name>
cmp_12

> <mmff94s_NoEstat>
117.54

> <Ki_nM>
23

$$$$
cmp_13
  -OEChem-07021816373D

 73 77  0     0  0  0  0  0  0999 V2000
   -1.6773    1.6439    2.4698 C   0  0  0  0  0  0  0  0  0  0  0  0
   -0.7036    1.3640    1.5041 C   0  0  0  0  0  0  0  0  0  0  0  0
   -8.5072   -3.1114    2.4170 C   0  0  0  0  0  0  0  0  0  0  0  0
   -8.6270    1.9160    2.2946 C   0  0  0  0  0  0  0  0  0  0  0  0
   -9.2871    1.2323    4.5159 C   0  0  0  0  0  0  0  0  0  0  0  0
  -10.2386   -3.4564    4.0107 C   0  0  0  0  0  0  0  0  0  0  0  0
   -8.4188   -2.1868    4.6064 C   0  0  0  0  0  0  0  0  0  0  0  0
   -2.7304    0.7292    2.6692 C   0  0  0  0  0  0  0  0  0  0  0  0
   -1.8022   -0.7245    0.9247 C   0  0  0  0  0  0  0  0  0  0  0  0
   -1.9210   -1.9434    0.1756 C   0  0  0  0  0  0  0  0  0  0  0  0
   -9.7350   -3.6787    2.7392 C   0  0  0  0  0  0  0  0  0  0  0  0
   -9.8823    1.5501    1.8090 C   0  0  0  0  0  0  0  0  0  0  0  0
  -10.5425    0.8665    4.0302 C   0  0  0  0  0  0  0  0  0  0  0  0
   -3.8586    0.6897    3.5356 C   0  0  0  0  0  0  0  0  0  0  0  0
   -2.7685   -0.4315    1.8936 C   0  0  0  0  0  0  0  0  0  0  0  0
   -7.8299   -2.3498    3.3629 C   0  0  0  0  0  0  0  0  0  0  0  0
   -8.3293    1.7570    3.6481 C   0  0  0  0  0  0  0  0  0  0  0  0
   -0.7671    0.1975    0.7446 C   0  0  0  0  0  0  0  0  0  0  0  0
  -10.8401    1.0254    2.6767 C   0  0  0  0  0  0  0  0  0  0  0  0
   -4.5471   -0.4724    3.2738 C   0  0  0  0  0  0  0  0  0  0  0  0
   -1.4193   -3.2356    0.4211 C   0  0  0  0  0  0  0  0  0  0  0  0
   -2.6017   -2.0592   -1.0118 C   0  0  0  0  0  0  0  0  0  0  0  0
  -10.4671   -4.4788    1.7732 C   0  0  0  0  0  0  0  0  0  0  0  0
   -5.7455   -0.9586    3.8834 C   0  0  0  0  0  0  0  0  0  0  0  0
  -10.1572    1.7384    0.3514 C   0  0  0  0  0  0  0  0  0  0  0  0
  -11.5376    0.3084    4.9965 C   0  0  0  0  0  0  0  0  0  0  0  0
   -0.6061   -3.6901    1.5633 C   0  0  0  0  0  0  0  0  0  0  0  0
   -3.3538   -1.0731   -1.8135 C   0  0  0  0  0  0  0  0  0  0  0  0
   -3.0143   -3.9807   -2.5781 C   0  0  0  0  0  0  0  0  0  0  0  0
   -4.2233    1.7156    4.5361 C   0  0  0  0  0  0  0  0  0  0  0  0
   -4.8661    2.9606    3.8976 C   0  0  0  0  0  0  0  0  0  0  0  0
   -6.1723    2.6437    3.1827 C   0  0  0  0  0  0  0  0  0  0  0  0
   -9.6098   -2.7224    4.9560 N   0  0  0  0  0  0  0  0  0  0  0  0
   -1.7531   -4.1082   -0.5334 N   0  0  0  0  0  0  0  0  0  0  0  0
   -3.8818   -1.1421    2.2822 N   0  0  0  0  0  0  0  0  0  0  0  0
   -2.4718   -3.3630   -1.3903 N   0  0  0  0  0  0  0  0  0  0  0  0
   -6.5770   -1.7572    3.0646 N   0  0  0  0  0  0  0  0  0  0  0  0
  -10.0969   -4.7289    0.6202 O   0  0  0  0  0  0  0  0  0  0  0  0
   -6.0693   -0.6741    5.0588 O   0  0  0  0  0  0  0  0  0  0  0  0
  -11.6447   -4.9496    2.2700 O   0  5  0  0  0  0  0  0  0  0  0  0
   -7.0956    2.1166    4.1252 O   0  0  0  0  0  0  0  0  0  0  0  0
    0.4784   -0.0707   -0.4286 Cl  0  0  0  0  0  0  0  0  0  0  0  0
  -12.3985    0.5712    2.0737 Cl  0  0  0  0  0  0  0  0  0  0  0  0
   -1.6144    2.5579    3.0534 H   0  0  0  0  0  0  0  0  0  0  0  0
    0.1049    2.0774    1.3603 H   0  0  0  0  0  0  0  0  0  0  0  0
   -8.0789   -3.2621    1.4287 H   0  0  0  0  0  0  0  0  0  0  0  0
   -7.8775    2.3253    1.6218 H   0  0  0  0  0  0  0  0  0  0  0  0
   -9.0508    1.1100    5.5700 H   0  0  0  0  0  0  0  0  0  0  0  0
  -11.1925   -3.8730    4.3204 H   0  0  0  0  0  0  0  0  0  0  0  0
   -7.9386   -1.6023    5.3858 H   0  0  0  0  0  0  0  0  0  0  0  0
   -9.8774    0.8375   -0.2057 H   0  0  0  0  0  0  0  0  0  0  0  0
  -11.2190    1.9455    0.1734 H   0  0  0  0  0  0  0  0  0  0  0  0
   -9.5930    2.5887   -0.0500 H   0  0  0  0  0  0  0  0  0  0  0  0
  -12.1386    1.1159    5.4291 H   0  0  0  0  0  0  0  0  0  0  0  0
  -12.2097   -0.4039    4.5037 H   0  0  0  0  0  0  0  0  0  0  0  0
  -11.0382   -0.2318    5.8095 H   0  0  0  0  0  0  0  0  0  0  0  0
   -1.2431   -4.0479    2.3898 H   0  0  0  0  0  0  0  0  0  0  0  0
    0.0753   -4.5138    1.2870 H   0  0  0  0  0  0  0  0  0  0  0  0
    0.0370   -2.8859    1.9621 H   0  0  0  0  0  0  0  0  0  0  0  0
   -2.6976   -0.5725   -2.5438 H   0  0  0  0  0  0  0  0  0  0  0  0
   -4.1825   -1.5404   -2.3718 H   0  0  0  0  0  0  0  0  0  0  0  0
   -3.8124   -0.2921   -1.1835 H   0  0  0  0  0  0  0  0  0  0  0  0
   -2.2725   -3.8873   -3.3757 H   0  0  0  0  0  0  0  0  0  0  0  0
   -3.2276   -5.0340   -2.3758 H   0  0  0  0  0  0  0  0  0  0  0  0
   -3.9427   -3.4744   -2.8568 H   0  0  0  0  0  0  0  0  0  0  0  0
   -3.3383    2.0379    5.1194 H   0  0  0  0  0  0  0  0  0  0  0  0
   -4.9243    1.3068    5.2904 H   0  0  0  0  0  0  0  0  0  0  0  0
   -4.1669    3.4222    3.1879 H   0  0  0  0  0  0  0  0  0  0  0  0
   -5.0486    3.7243    4.6652 H   0  0  0  0  0  0  0  0  0  0  0  0
   -6.6044    3.5468    2.7399 H   0  0  0  0  0  0  0  0  0  0  0  0
   -6.0158    1.8997    2.3951 H   0  0  0  0  0  0  0  0  0  0  0  0
   -4.1670   -2.0299    1.8921 H   0  0  0  0  0  0  0  0  0  0  0  0
   -6.2256   -1.9316    2.1263 H   0  0  0  0  0  0  0  0  0  0  0  0
  1  2  2  0  0  0  0
  1  8  1  0  0  0  0
  2 18  1  0  0  0  0
  3 11  1  0  0  0  0
  3 16  2  0  0  0  0
  4 12  1  0  0  0  0
  4 17  2  0  0  0  0
  5 13  2  0  0  0  0
  5 17  1  0  0  0  0
  6 11  2  0  0  0  0
  6 33  1  0  0  0  0
  7 16  1  0  0  0  0
  7 33  2  0  0  0  0
  8 14  1  0  0  0  0
  8 15  2  0  0  0  0
  9 10  1  0  0  0  0
  9 15  1  0  0  0  0
  9 18  2  0  0  0  0
 10 21  1  0  0  0  0
 10 22  2  0  0  0  0
 11 23  1  0  0  0  0
 12 19  2  0  0  0  0
 12 25  1  0  0  0  0
 13 19  1  0  0  0  0
 13 26  1  0  0  0  0
 14 20  2  0  0  0  0
 14 30  1  0  0  0  0
 15 35  1  0  0  0  0
 16 37  1  0  0  0  0
 17 41  1  0  0  0  0
 18 42  1  0  0  0  0
 19 43  1  0  0  0  0
 20 24  1  0  0  0  0
 20 35  1  0  0  0  0
 21 27  1  0  0  0  0
 21 34  2  0  0  0  0
 22 28  1  0  0  0  0
 22 36  1  0  0  0  0
 23 38  2  0  0  0  0
 23 40  1  0  0  0  0
 24 37  1  0  0  0  0
 24 39  2  0  0  0  0
 29 36  1  0  0  0  0
 30 31  1  0  0  0  0
 31 32  1  0  0  0  0
 32 41  1  0  0  0  0
 34 36  1  0  0  0  0
  1 44  1  0  0  0  0
  2 45  1  0  0  0  0
  3 46  1  0  0  0  0
  4 47  1  0  0  0  0
  5 48  1  0  0  0  0
  6 49  1  0  0  0  0
  7 50  1  0  0  0  0
 25 51  1  0  0  0  0
 25 52  1  0  0  0  0
 25 53  1  0  0  0  0
 26 54  1  0  0  0  0
 26 55  1  0  0  0  0
 26 56  1  0  0  0  0
 27 57  1  0  0  0  0
 27 58  1  0  0  0  0
 27 59  1  0  0  0  0
 28 60  1  0  0  0  0
 28 61  1  0  0  0  0
 28 62  1  0  0  0  0
 29 63  1  0  0  0  0
 29 64  1  0  0  0  0
 29 65  1  0  0  0  0
 30 66  1  0  0  0  0
 30 67  1  0  0  0  0
 31 68  1  0  0  0  0
 31 69  1  0  0  0  0
 32 70  1  0  0  0  0
 32 71  1  0  0  0  0
 35 72  1  0  0  0  0
 37 73  1  0  0  0  0
M  CHG  1  40  -1
M  END
> <Molecule Name>
cmp_13

> <mmff94s_NoEstat>
116.76

> <Ki_nM>
17

$$$$
cmp_14
  -OEChem-07021816373D

 73 77  0     0  0  0  0  0  0999 V2000
   -9.2960   -3.2900    4.9824 C   0  0  0  0  0  0  0  0  0  0  0  0
   -1.6773    1.6439    2.4698 C   0  0  0  0  0  0  0  0  0  0  0  0
   -0.7036    1.3640    1.5041 C   0  0  0  0  0  0  0  0  0  0  0  0
  -10.2315   -3.4918    3.9737 C   0  0  0  0  0  0  0  0  0  0  0  0
   -8.0698   -2.7086    4.6795 C   0  0  0  0  0  0  0  0  0  0  0  0
   -8.6270    1.9160    2.2946 C   0  0  0  0  0  0  0  0  0  0  0  0
   -9.2871    1.2323    4.5159 C   0  0  0  0  0  0  0  0  0  0  0  0
   -2.7304    0.7292    2.6692 C   0  0  0  0  0  0  0  0  0  0  0  0
   -1.8022   -0.7245    0.9247 C   0  0  0  0  0  0  0  0  0  0  0  0
   -1.9210   -1.9434    0.1756 C   0  0  0  0  0  0  0  0  0  0  0  0
   -9.8823    1.5501    1.8090 C   0  0  0  0  0  0  0  0  0  0  0  0
  -10.5425    0.8665    4.0302 C   0  0  0  0  0  0  0  0  0  0  0  0
   -3.8586    0.6897    3.5356 C   0  0  0  0  0  0  0  0  0  0  0  0
   -2.7685   -0.4315    1.8936 C   0  0  0  0  0  0  0  0  0  0  0  0
   -8.3293    1.7570    3.6481 C   0  0  0  0  0  0  0  0  0  0  0  0
   -0.7671    0.1975    0.7446 C   0  0  0  0  0  0  0  0  0  0  0  0
  -10.8401    1.0254    2.6767 C   0  0  0  0  0  0  0  0  0  0  0  0
   -9.8949   -3.0979    2.6887 C   0  0  0  0  0  0  0  0  0  0  0  0
   -4.5471   -0.4724    3.2738 C   0  0  0  0  0  0  0  0  0  0  0  0
   -1.4193   -3.2356    0.4211 C   0  0  0  0  0  0  0  0  0  0  0  0
   -2.6017   -2.0592   -1.0118 C   0  0  0  0  0  0  0  0  0  0  0  0
   -7.8299   -2.3498    3.3629 C   0  0  0  0  0  0  0  0  0  0  0  0
  -10.8342   -3.2842    1.5965 C   0  0  0  0  0  0  0  0  0  0  0  0
   -5.7455   -0.9586    3.8834 C   0  0  0  0  0  0  0  0  0  0  0  0
  -10.1572    1.7384    0.3514 C   0  0  0  0  0  0  0  0  0  0  0  0
  -11.5376    0.3084    4.9965 C   0  0  0  0  0  0  0  0  0  0  0  0
   -0.6061   -3.6901    1.5633 C   0  0  0  0  0  0  0  0  0  0  0  0
   -3.3538   -1.0731   -1.8135 C   0  0  0  0  0  0  0  0  0  0  0  0
   -3.0143   -3.9807   -2.5781 C   0  0  0  0  0  0  0  0  0  0  0  0
   -4.2233    1.7156    4.5361 C   0  0  0  0  0  0  0  0  0  0  0  0
   -4.8661    2.9606    3.8976 C   0  0  0  0  0  0  0  0  0  0  0  0
   -6.1723    2.6437    3.1827 C   0  0  0  0  0  0  0  0  0  0  0  0
   -8.7140   -2.5300    2.3561 N   0  0  0  0  0  0  0  0  0  0  0  0
   -1.7531   -4.1082   -0.5334 N   0  0  0  0  0  0  0  0  0  0  0  0
   -3.8818   -1.1421    2.2822 N   0  0  0  0  0  0  0  0  0  0  0  0
   -2.4718   -3.3630   -1.3903 N   0  0  0  0  0  0  0  0  0  0  0  0
   -6.5770   -1.7572    3.0646 N   0  0  0  0  0  0  0  0  0  0  0  0
  -11.9611   -3.7829    1.6961 O   0  0  0  0  0  0  0  0  0  0  0  0
   -6.0693   -0.6741    5.0588 O   0  0  0  0  0  0  0  0  0  0  0  0
  -10.3442   -2.8419    0.4052 O   0  5  0  0  0  0  0  0  0  0  0  0
   -7.0956    2.1166    4.1252 O   0  0  0  0  0  0  0  0  0  0  0  0
    0.4784   -0.0707   -0.4286 Cl  0  0  0  0  0  0  0  0  0  0  0  0
  -12.3985    0.5712    2.0737 Cl  0  0  0  0  0  0  0  0  0  0  0  0
   -9.5217   -3.5852    6.0026 H   0  0  0  0  0  0  0  0  0  0  0  0
   -1.6144    2.5579    3.0534 H   0  0  0  0  0  0  0  0  0  0  0  0
    0.1049    2.0774    1.3603 H   0  0  0  0  0  0  0  0  0  0  0  0
  -11.1919   -3.9438    4.1982 H   0  0  0  0  0  0  0  0  0  0  0  0
   -7.3343   -2.5472    5.4609 H   0  0  0  0  0  0  0  0  0  0  0  0
   -7.8775    2.3253    1.6218 H   0  0  0  0  0  0  0  0  0  0  0  0
   -9.0508    1.1100    5.5700 H   0  0  0  0  0  0  0  0  0  0  0  0
   -9.8774    0.8375   -0.2057 H   0  0  0  0  0  0  0  0  0  0  0  0
  -11.2190    1.9455    0.1734 H   0  0  0  0  0  0  0  0  0  0  0  0
   -9.5930    2.5887   -0.0500 H   0  0  0  0  0  0  0  0  0  0  0  0
  -12.1386    1.1159    5.4291 H   0  0  0  0  0  0  0  0  0  0  0  0
  -12.2097   -0.4039    4.5037 H   0  0  0  0  0  0  0  0  0  0  0  0
  -11.0382   -0.2318    5.8095 H   0  0  0  0  0  0  0  0  0  0  0  0
   -1.2431   -4.0479    2.3898 H   0  0  0  0  0  0  0  0  0  0  0  0
    0.0753   -4.5138    1.2870 H   0  0  0  0  0  0  0  0  0  0  0  0
    0.0370   -2.8859    1.9621 H   0  0  0  0  0  0  0  0  0  0  0  0
   -2.6976   -0.5725   -2.5438 H   0  0  0  0  0  0  0  0  0  0  0  0
   -4.1825   -1.5404   -2.3718 H   0  0  0  0  0  0  0  0  0  0  0  0
   -3.8124   -0.2921   -1.1835 H   0  0  0  0  0  0  0  0  0  0  0  0
   -2.2725   -3.8873   -3.3757 H   0  0  0  0  0  0  0  0  0  0  0  0
   -3.2276   -5.0340   -2.3758 H   0  0  0  0  0  0  0  0  0  0  0  0
   -3.9427   -3.4744   -2.8568 H   0  0  0  0  0  0  0  0  0  0  0  0
   -3.3383    2.0379    5.1194 H   0  0  0  0  0  0  0  0  0  0  0  0
   -4.9243    1.3068    5.2904 H   0  0  0  0  0  0  0  0  0  0  0  0
   -4.1669    3.4222    3.1879 H   0  0  0  0  0  0  0  0  0  0  0  0
   -5.0486    3.7243    4.6652 H   0  0  0  0  0  0  0  0  0  0  0  0
   -6.6044    3.5468    2.7399 H   0  0  0  0  0  0  0  0  0  0  0  0
   -6.0158    1.8997    2.3951 H   0  0  0  0  0  0  0  0  0  0  0  0
   -4.1670   -2.0299    1.8921 H   0  0  0  0  0  0  0  0  0  0  0  0
   -6.2256   -1.9316    2.1263 H   0  0  0  0  0  0  0  0  0  0  0  0
  1  4  1  0  0  0  0
  1  5  2  0  0  0  0
  2  3  2  0  0  0  0
  2  8  1  0  0  0  0
  3 16  1  0  0  0  0
  4 18  2  0  0  0  0
  5 22  1  0  0  0  0
  6 11  1  0  0  0  0
  6 15  2  0  0  0  0
  7 12  2  0  0  0  0
  7 15  1  0  0  0  0
  8 13  1  0  0  0  0
  8 14  2  0  0  0  0
  9 10  1  0  0  0  0
  9 14  1  0  0  0  0
  9 16  2  0  0  0  0
 10 20  1  0  0  0  0
 10 21  2  0  0  0  0
 11 17  2  0  0  0  0
 11 25  1  0  0  0  0
 12 17  1  0  0  0  0
 12 26  1  0  0  0  0
 13 19  2  0  0  0  0
 13 30  1  0  0  0  0
 14 35  1  0  0  0  0
 15 41  1  0  0  0  0
 16 42  1  0  0  0  0
 17 43  1  0  0  0  0
 18 23  1  0  0  0  0
 18 33  1  0  0  0  0
 19 24  1  0  0  0  0
 19 35  1  0  0  0  0
 20 27  1  0  0  0  0
 20 34  2  0  0  0  0
 21 28  1  0  0  0  0
 21 36  1  0  0  0  0
 22 33  2  0  0  0  0
 22 37  1  0  0  0  0
 23 38  2  0  0  0  0
 23 40  1  0  0  0  0
 24 37  1  0  0  0  0
 24 39  2  0  0  0  0
 29 36  1  0  0  0  0
 30 31  1  0  0  0  0
 31 32  1  0  0  0  0
 32 41  1  0  0  0  0
 34 36  1  0  0  0  0
  1 44  1  0  0  0  0
  2 45  1  0  0  0  0
  3 46  1  0  0  0  0
  4 47  1  0  0  0  0
  5 48  1  0  0  0  0
  6 49  1  0  0  0  0
  7 50  1  0  0  0  0
 25 51  1  0  0  0  0
 25 52  1  0  0  0  0
 25 53  1  0  0  0  0
 26 54  1  0  0  0  0
 26 55  1  0  0  0  0
 26 56  1  0  0  0  0
 27 57  1  0  0  0  0
 27 58  1  0  0  0  0
 27 59  1  0  0  0  0
 28 60  1  0  0  0  0
 28 61  1  0  0  0  0
 28 62  1  0  0  0  0
 29 63  1  0  0  0  0
 29 64  1  0  0  0  0
 29 65  1  0  0  0  0
 30 66  1  0  0  0  0
 30 67  1  0  0  0  0
 31 68  1  0  0  0  0
 31 69  1  0  0  0  0
 32 70  1  0  0  0  0
 32 71  1  0  0  0  0
 35 72  1  0  0  0  0
 37 73  1  0  0  0  0
M  CHG  1  40  -1
M  END
> <Molecule Name>
cmp_14

> <mmff94s_NoEstat>
116.22

> <Ki_nM>
96

$$$$
cmp_15
  -OEChem-07021816373D

 73 77  0     0  0  0  0  0  0999 V2000
   -1.6773    1.6439    2.4698 C   0  0  0  0  0  0  0  0  0  0  0  0
   -0.7036    1.3640    1.5041 C   0  0  0  0  0  0  0  0  0  0  0  0
  -10.2395   -3.4763    3.9708 C   0  0  0  0  0  0  0  0  0  0  0  0
   -8.3509   -2.1408    4.6296 C   0  0  0  0  0  0  0  0  0  0  0  0
   -8.4660    1.3129    2.3328 C   0  0  0  0  0  0  0  0  0  0  0  0
   -9.4480    1.8352    4.4776 C   0  0  0  0  0  0  0  0  0  0  0  0
   -9.6341   -3.6254    2.7335 C   0  0  0  0  0  0  0  0  0  0  0  0
   -2.7304    0.7292    2.6692 C   0  0  0  0  0  0  0  0  0  0  0  0
   -1.8022   -0.7245    0.9247 C   0  0  0  0  0  0  0  0  0  0  0  0
   -1.9210   -1.9434    0.1756 C   0  0  0  0  0  0  0  0  0  0  0  0
   -9.5792   -2.7183    4.9314 C   0  0  0  0  0  0  0  0  0  0  0  0
   -9.7213    0.9470    1.8472 C   0  0  0  0  0  0  0  0  0  0  0  0
  -10.7034    1.4694    3.9919 C   0  0  0  0  0  0  0  0  0  0  0  0
   -3.8586    0.6897    3.5356 C   0  0  0  0  0  0  0  0  0  0  0  0
   -2.7685   -0.4315    1.8936 C   0  0  0  0  0  0  0  0  0  0  0  0
   -8.3293    1.7570    3.6481 C   0  0  0  0  0  0  0  0  0  0  0  0
   -0.7671    0.1975    0.7446 C   0  0  0  0  0  0  0  0  0  0  0  0
  -10.8400    1.0252    2.6767 C   0  0  0  0  0  0  0  0  0  0  0  0
   -4.5471   -0.4724    3.2738 C   0  0  0  0  0  0  0  0  0  0  0  0
   -1.4193   -3.2356    0.4211 C   0  0  0  0  0  0  0  0  0  0  0  0
   -2.6017   -2.0592   -1.0118 C   0  0  0  0  0  0  0  0  0  0  0  0
   -7.8299   -2.3498    3.3629 C   0  0  0  0  0  0  0  0  0  0  0  0
  -10.1714   -2.5308    6.2461 C   0  0  0  0  0  0  0  0  0  0  0  0
   -5.7455   -0.9586    3.8834 C   0  0  0  0  0  0  0  0  0  0  0  0
   -9.8204    0.4772    0.4312 C   0  0  0  0  0  0  0  0  0  0  0  0
  -11.8742    1.5693    4.9164 C   0  0  0  0  0  0  0  0  0  0  0  0
   -0.6061   -3.6901    1.5633 C   0  0  0  0  0  0  0  0  0  0  0  0
   -3.3538   -1.0731   -1.8135 C   0  0  0  0  0  0  0  0  0  0  0  0
   -3.0143   -3.9807   -2.5781 C   0  0  0  0  0  0  0  0  0  0  0  0
   -4.2233    1.7156    4.5361 C   0  0  0  0  0  0  0  0  0  0  0  0
   -4.8661    2.9606    3.8976 C   0  0  0  0  0  0  0  0  0  0  0  0
   -6.1723    2.6437    3.1827 C   0  0  0  0  0  0  0  0  0  0  0  0
   -8.4420   -3.0798    2.4036 N   0  0  0  0  0  0  0  0  0  0  0  0
   -1.7531   -4.1082   -0.5334 N   0  0  0  0  0  0  0  0  0  0  0  0
   -3.8818   -1.1421    2.2822 N   0  0  0  0  0  0  0  0  0  0  0  0
   -2.4718   -3.3630   -1.3903 N   0  0  0  0  0  0  0  0  0  0  0  0
   -6.5770   -1.7572    3.0646 N   0  0  0  0  0  0  0  0  0  0  0  0
  -11.2535   -2.9975    6.6175 O   0  0  0  0  0  0  0  0  0  0  0  0
   -6.0693   -0.6741    5.0588 O   0  0  0  0  0  0  0  0  0  0  0  0
   -9.3954   -1.7661    7.0625 O   0  5  0  0  0  0  0  0  0  0  0  0
   -7.0956    2.1166    4.1252 O   0  0  0  0  0  0  0  0  0  0  0  0
    0.4784   -0.0707   -0.4286 Cl  0  0  0  0  0  0  0  0  0  0  0  0
  -12.3984    0.5708    2.0736 Cl  0  0  0  0  0  0  0  0  0  0  0  0
   -1.6144    2.5579    3.0534 H   0  0  0  0  0  0  0  0  0  0  0  0
    0.1049    2.0774    1.3603 H   0  0  0  0  0  0  0  0  0  0  0  0
  -11.1989   -3.9405    4.1736 H   0  0  0  0  0  0  0  0  0  0  0  0
   -7.8201   -1.5454    5.3667 H   0  0  0  0  0  0  0  0  0  0  0  0
   -7.5914    1.2534    1.6898 H   0  0  0  0  0  0  0  0  0  0  0  0
   -9.3370    2.1819    5.5020 H   0  0  0  0  0  0  0  0  0  0  0  0
  -10.1081   -4.2070    1.9497 H   0  0  0  0  0  0  0  0  0  0  0  0
   -9.6833   -0.6087    0.3826 H   0  0  0  0  0  0  0  0  0  0  0  0
  -10.7967    0.7274   -0.0003 H   0  0  0  0  0  0  0  0  0  0  0  0
   -9.0599    0.9555   -0.1974 H   0  0  0  0  0  0  0  0  0  0  0  0
  -12.3323    2.5616    4.8405 H   0  0  0  0  0  0  0  0  0  0  0  0
  -12.6317    0.8137    4.6771 H   0  0  0  0  0  0  0  0  0  0  0  0
  -11.5711    1.4012    5.9567 H   0  0  0  0  0  0  0  0  0  0  0  0
   -1.2431   -4.0479    2.3898 H   0  0  0  0  0  0  0  0  0  0  0  0
    0.0753   -4.5138    1.2870 H   0  0  0  0  0  0  0  0  0  0  0  0
    0.0370   -2.8859    1.9621 H   0  0  0  0  0  0  0  0  0  0  0  0
   -2.6976   -0.5725   -2.5438 H   0  0  0  0  0  0  0  0  0  0  0  0
   -4.1825   -1.5404   -2.3718 H   0  0  0  0  0  0  0  0  0  0  0  0
   -3.8124   -0.2921   -1.1835 H   0  0  0  0  0  0  0  0  0  0  0  0
   -2.2725   -3.8873   -3.3757 H   0  0  0  0  0  0  0  0  0  0  0  0
   -3.2276   -5.0340   -2.3758 H   0  0  0  0  0  0  0  0  0  0  0  0
   -3.9427   -3.4744   -2.8568 H   0  0  0  0  0  0  0  0  0  0  0  0
   -3.3383    2.0379    5.1194 H   0  0  0  0  0  0  0  0  0  0  0  0
   -4.9243    1.3068    5.2904 H   0  0  0  0  0  0  0  0  0  0  0  0
   -4.1669    3.4222    3.1879 H   0  0  0  0  0  0  0  0  0  0  0  0
   -5.0486    3.7243    4.6652 H   0  0  0  0  0  0  0  0  0  0  0  0
   -6.6044    3.5468    2.7399 H   0  0  0  0  0  0  0  0  0  0  0  0
   -6.0158    1.8997    2.3951 H   0  0  0  0  0  0  0  0  0  0  0  0
   -4.1670   -2.0299    1.8921 H   0  0  0  0  0  0  0  0  0  0  0  0
   -6.2256   -1.9316    2.1263 H   0  0  0  0  0  0  0  0  0  0  0  0
  1  2  2  0  0  0  0
  1  8  1  0  0  0  0
  2 17  1  0  0  0  0
  3  7  1  0  0  0  0
  3 11  2  0  0  0  0
  4 11  1  0  0  0  0
  4 22  2  0  0  0  0
  5 12  1  0  0  0  0
  5 16  2  0  0  0  0
  6 13  2  0  0  0  0
  6 16  1  0  0  0  0
  7 33  2  0  0  0  0
  8 14  1  0  0  0  0
  8 15  2  0  0  0  0
  9 10  1  0  0  0  0
  9 15  1  0  0  0  0
  9 17  2  0  0  0  0
 10 20  1  0  0  0  0
 10 21  2  0  0  0  0
 11 23  1  0  0  0  0
 12 18  2  0  0  0  0
 12 25  1  0  0  0  0
 13 18  1  0  0  0  0
 13 26  1  0  0  0  0
 14 19  2  0  0  0  0
 14 30  1  0  0  0  0
 15 35  1  0  0  0  0
 16 41  1  0  0  0  0
 17 42  1  0  0  0  0
 18 43  1  0  0  0  0
 19 24  1  0  0  0  0
 19 35  1  0  0  0  0
 20 27  1  0  0  0  0
 20 34  2  0  0  0  0
 21 28  1  0  0  0  0
 21 36  1  0  0  0  0
 22 33  1  0  0  0  0
 22 37  1  0  0  0  0
 23 38  2  0  0  0  0
 23 40  1  0  0  0  0
 24 37  1  0  0  0  0
 24 39  2  0  0  0  0
 29 36  1  0  0  0  0
 30 31  1  0  0  0  0
 31 32  1  0  0  0  0
 32 41  1  0  0  0  0
 34 36  1  0  0  0  0
  1 44  1  0  0  0  0
  2 45  1  0  0  0  0
  3 46  1  0  0  0  0
  4 47  1  0  0  0  0
  5 48  1  0  0  0  0
  6 49  1  0  0  0  0
  7 50  1  0  0  0  0
 25 51  1  0  0  0  0
 25 52  1  0  0  0  0
 25 53  1  0  0  0  0
 26 54  1  0  0  0  0
 26 55  1  0  0  0  0
 26 56  1  0  0  0  0
 27 57  1  0  0  0  0
 27 58  1  0  0  0  0
 27 59  1  0  0  0  0
 28 60  1  0  0  0  0
 28 61  1  0  0  0  0
 28 62  1  0  0  0  0
 29 63  1  0  0  0  0
 29 64  1  0  0  0  0
 29 65  1  0  0  0  0
 30 66  1  0  0  0  0
 30 67  1  0  0  0  0
 31 68  1  0  0  0  0
 31 69  1  0  0  0  0
 32 70  1  0  0  0  0
 32 71  1  0  0  0  0
 35 72  1  0  0  0  0
 37 73  1  0  0  0  0
M  CHG  1  40  -1
M  END
> <Molecule Name>
cmp_15

> <mmff94s_NoEstat>
119.09

> <Ki_nM>
12

$$$$
cmp_16
  -OEChem-07021816373D

 71 75  0     0  0  0  0  0  0999 V2000
   -1.6773    1.6439    2.4698 C   0  0  0  0  0  0  0  0  0  0  0  0
   -0.7036    1.3640    1.5041 C   0  0  0  0  0  0  0  0  0  0  0  0
   -9.7505   -3.1023    4.2125 C   0  0  0  0  0  0  0  0  0  0  0  0
   -8.5991   -2.3322    4.5031 C   0  0  0  0  0  0  0  0  0  0  0  0
   -8.6270    1.9160    2.2946 C   0  0  0  0  0  0  0  0  0  0  0  0
   -9.2871    1.2323    4.5159 C   0  0  0  0  0  0  0  0  0  0  0  0
   -2.7304    0.7292    2.6692 C   0  0  0  0  0  0  0  0  0  0  0  0
   -1.8022   -0.7245    0.9247 C   0  0  0  0  0  0  0  0  0  0  0  0
   -1.9210   -1.9434    0.1756 C   0  0  0  0  0  0  0  0  0  0  0  0
   -9.8823    1.5501    1.8090 C   0  0  0  0  0  0  0  0  0  0  0  0
  -10.5425    0.8665    4.0302 C   0  0  0  0  0  0  0  0  0  0  0  0
   -3.8586    0.6897    3.5356 C   0  0  0  0  0  0  0  0  0  0  0  0
   -2.7685   -0.4315    1.8936 C   0  0  0  0  0  0  0  0  0  0  0  0
   -8.3293    1.7570    3.6481 C   0  0  0  0  0  0  0  0  0  0  0  0
   -0.7671    0.1975    0.7446 C   0  0  0  0  0  0  0  0  0  0  0  0
  -10.8401    1.0254    2.6767 C   0  0  0  0  0  0  0  0  0  0  0  0
   -4.5471   -0.4724    3.2738 C   0  0  0  0  0  0  0  0  0  0  0  0
   -9.6030   -3.5353    2.9153 C   0  0  0  0  0  0  0  0  0  0  0  0
   -1.4193   -3.2356    0.4211 C   0  0  0  0  0  0  0  0  0  0  0  0
   -2.6017   -2.0592   -1.0118 C   0  0  0  0  0  0  0  0  0  0  0  0
   -7.8299   -2.3498    3.3629 C   0  0  0  0  0  0  0  0  0  0  0  0
   -5.7455   -0.9586    3.8834 C   0  0  0  0  0  0  0  0  0  0  0  0
  -10.4379   -4.3387    2.0891 C   0  0  0  0  0  0  0  0  0  0  0  0
  -10.1572    1.7384    0.3514 C   0  0  0  0  0  0  0  0  0  0  0  0
  -11.5376    0.3084    4.9965 C   0  0  0  0  0  0  0  0  0  0  0  0
   -0.6061   -3.6901    1.5633 C   0  0  0  0  0  0  0  0  0  0  0  0
   -3.3538   -1.0731   -1.8135 C   0  0  0  0  0  0  0  0  0  0  0  0
   -3.0143   -3.9807   -2.5781 C   0  0  0  0  0  0  0  0  0  0  0  0
   -4.2233    1.7156    4.5361 C   0  0  0  0  0  0  0  0  0  0  0  0
   -4.8661    2.9606    3.8976 C   0  0  0  0  0  0  0  0  0  0  0  0
   -6.1723    2.6437    3.1827 C   0  0  0  0  0  0  0  0  0  0  0  0
   -1.7531   -4.1082   -0.5334 N   0  0  0  0  0  0  0  0  0  0  0  0
   -3.8818   -1.1421    2.2822 N   0  0  0  0  0  0  0  0  0  0  0  0
   -2.4718   -3.3630   -1.3903 N   0  0  0  0  0  0  0  0  0  0  0  0
   -6.5770   -1.7572    3.0646 N   0  0  0  0  0  0  0  0  0  0  0  0
   -6.0693   -0.6741    5.0588 O   0  0  0  0  0  0  0  0  0  0  0  0
  -10.2100   -4.6812    0.9047 O   0  0  0  0  0  0  0  0  0  0  0  0
   -8.4348   -3.0811    2.3903 O   0  0  0  0  0  0  0  0  0  0  0  0
  -11.5934   -4.7505    2.7069 O   0  5  0  0  0  0  0  0  0  0  0  0
   -7.0956    2.1166    4.1252 O   0  0  0  0  0  0  0  0  0  0  0  0
    0.4784   -0.0707   -0.4286 Cl  0  0  0  0  0  0  0  0  0  0  0  0
  -12.3985    0.5712    2.0737 Cl  0  0  0  0  0  0  0  0  0  0  0  0
   -1.6144    2.5579    3.0534 H   0  0  0  0  0  0  0  0  0  0  0  0
    0.1049    2.0774    1.3603 H   0  0  0  0  0  0  0  0  0  0  0  0
  -10.5821   -3.3127    4.8699 H   0  0  0  0  0  0  0  0  0  0  0  0
   -8.3633   -1.8289    5.4301 H   0  0  0  0  0  0  0  0  0  0  0  0
   -7.8775    2.3253    1.6218 H   0  0  0  0  0  0  0  0  0  0  0  0
   -9.0508    1.1100    5.5700 H   0  0  0  0  0  0  0  0  0  0  0  0
   -9.8774    0.8375   -0.2057 H   0  0  0  0  0  0  0  0  0  0  0  0
  -11.2190    1.9455    0.1734 H   0  0  0  0  0  0  0  0  0  0  0  0
   -9.5930    2.5887   -0.0500 H   0  0  0  0  0  0  0  0  0  0  0  0
  -12.1386    1.1159    5.4291 H   0  0  0  0  0  0  0  0  0  0  0  0
  -12.2097   -0.4039    4.5037 H   0  0  0  0  0  0  0  0  0  0  0  0
  -11.0382   -0.2318    5.8095 H   0  0  0  0  0  0  0  0  0  0  0  0
   -1.2431   -4.0479    2.3898 H   0  0  0  0  0  0  0  0  0  0  0  0
    0.0753   -4.5138    1.2870 H   0  0  0  0  0  0  0  0  0  0  0  0
    0.0370   -2.8859    1.9621 H   0  0  0  0  0  0  0  0  0  0  0  0
   -2.6976   -0.5725   -2.5438 H   0  0  0  0  0  0  0  0  0  0  0  0
   -4.1825   -1.5404   -2.3718 H   0  0  0  0  0  0  0  0  0  0  0  0
   -3.8124   -0.2921   -1.1835 H   0  0  0  0  0  0  0  0  0  0  0  0
   -2.2725   -3.8873   -3.3757 H   0  0  0  0  0  0  0  0  0  0  0  0
   -3.2276   -5.0340   -2.3758 H   0  0  0  0  0  0  0  0  0  0  0  0
   -3.9427   -3.4744   -2.8568 H   0  0  0  0  0  0  0  0  0  0  0  0
   -3.3383    2.0379    5.1194 H   0  0  0  0  0  0  0  0  0  0  0  0
   -4.9243    1.3068    5.2904 H   0  0  0  0  0  0  0  0  0  0  0  0
   -4.1669    3.4222    3.1879 H   0  0  0  0  0  0  0  0  0  0  0  0
   -5.0486    3.7243    4.6652 H   0  0  0  0  0  0  0  0  0  0  0  0
   -6.6044    3.5468    2.7399 H   0  0  0  0  0  0  0  0  0  0  0  0
   -6.0158    1.8997    2.3951 H   0  0  0  0  0  0  0  0  0  0  0  0
   -4.1670   -2.0299    1.8921 H   0  0  0  0  0  0  0  0  0  0  0  0
   -6.2256   -1.9316    2.1263 H   0  0  0  0  0  0  0  0  0  0  0  0
  1  2  2  0  0  0  0
  1  7  1  0  0  0  0
  2 15  1  0  0  0  0
  3  4  1  0  0  0  0
  3 18  2  0  0  0  0
  4 21  2  0  0  0  0
  5 10  1  0  0  0  0
  5 14  2  0  0  0  0
  6 11  2  0  0  0  0
  6 14  1  0  0  0  0
  7 12  1  0  0  0  0
  7 13  2  0  0  0  0
  8  9  1  0  0  0  0
  8 13  1  0  0  0  0
  8 15  2  0  0  0  0
  9 19  1  0  0  0  0
  9 20  2  0  0  0  0
 10 16  2  0  0  0  0
 10 24  1  0  0  0  0
 11 16  1  0  0  0  0
 11 25  1  0  0  0  0
 12 17  2  0  0  0  0
 12 29  1  0  0  0  0
 13 33  1  0  0  0  0
 14 40  1  0  0  0  0
 15 41  1  0  0  0  0
 16 42  1  0  0  0  0
 17 22  1  0  0  0  0
 17 33  1  0  0  0  0
 18 23  1  0  0  0  0
 18 38  1  0  0  0  0
 19 26  1  0  0  0  0
 19 32  2  0  0  0  0
 20 27  1  0  0  0  0
 20 34  1  0  0  0  0
 21 35  1  0  0  0  0
 21 38  1  0  0  0  0
 22 35  1  0  0  0  0
 22 36  2  0  0  0  0
 23 37  2  0  0  0  0
 23 39  1  0  0  0  0
 28 34  1  0  0  0  0
 29 30  1  0  0  0  0
 30 31  1  0  0  0  0
 31 40  1  0  0  0  0
 32 34  1  0  0  0  0
  1 43  1  0  0  0  0
  2 44  1  0  0  0  0
  3 45  1  0  0  0  0
  4 46  1  0  0  0  0
  5 47  1  0  0  0  0
  6 48  1  0  0  0  0
 24 49  1  0  0  0  0
 24 50  1  0  0  0  0
 24 51  1  0  0  0  0
 25 52  1  0  0  0  0
 25 53  1  0  0  0  0
 25 54  1  0  0  0  0
 26 55  1  0  0  0  0
 26 56  1  0  0  0  0
 26 57  1  0  0  0  0
 27 58  1  0  0  0  0
 27 59  1  0  0  0  0
 27 60  1  0  0  0  0
 28 61  1  0  0  0  0
 28 62  1  0  0  0  0
 28 63  1  0  0  0  0
 29 64  1  0  0  0  0
 29 65  1  0  0  0  0
 30 66  1  0  0  0  0
 30 67  1  0  0  0  0
 31 68  1  0  0  0  0
 31 69  1  0  0  0  0
 33 70  1  0  0  0  0
 35 71  1  0  0  0  0
M  CHG  1  39  -1
M  END
> <Molecule Name>
cmp_16

> <mmff94s_NoEstat>
94.87

> <Ki_nM>
31

$$$$
cmp_17
  -OEChem-07021816373D

 74 78  0     0  0  0  0  0  0999 V2000
   -1.6773    1.6439    2.4698 C   0  0  0  0  0  0  0  0  0  0  0  0
   -9.7215   -3.6930    2.6887 C   0  0  0  0  0  0  0  0  0  0  0  0
   -9.6362   -2.7576    4.9147 C   0  0  0  0  0  0  0  0  0  0  0  0
   -8.4889   -3.1094    2.3962 C   0  0  0  0  0  0  0  0  0  0  0  0
   -8.4036   -2.1739    4.6221 C   0  0  0  0  0  0  0  0  0  0  0  0
   -0.7036    1.3640    1.5041 C   0  0  0  0  0  0  0  0  0  0  0  0
   -8.6270    1.9160    2.2946 C   0  0  0  0  0  0  0  0  0  0  0  0
   -9.2871    1.2323    4.5159 C   0  0  0  0  0  0  0  0  0  0  0  0
   -2.7304    0.7292    2.6692 C   0  0  0  0  0  0  0  0  0  0  0  0
   -1.8022   -0.7245    0.9247 C   0  0  0  0  0  0  0  0  0  0  0  0
   -1.9210   -1.9434    0.1756 C   0  0  0  0  0  0  0  0  0  0  0  0
  -10.2952   -3.5171    3.9480 C   0  0  0  0  0  0  0  0  0  0  0  0
   -9.8823    1.5501    1.8090 C   0  0  0  0  0  0  0  0  0  0  0  0
  -10.5425    0.8665    4.0302 C   0  0  0  0  0  0  0  0  0  0  0  0
   -3.8586    0.6897    3.5356 C   0  0  0  0  0  0  0  0  0  0  0  0
   -2.7685   -0.4315    1.8936 C   0  0  0  0  0  0  0  0  0  0  0  0
   -7.8299   -2.3498    3.3629 C   0  0  0  0  0  0  0  0  0  0  0  0
   -8.3293    1.7570    3.6481 C   0  0  0  0  0  0  0  0  0  0  0  0
   -0.7671    0.1975    0.7446 C   0  0  0  0  0  0  0  0  0  0  0  0
  -10.8401    1.0254    2.6767 C   0  0  0  0  0  0  0  0  0  0  0  0
   -4.5471   -0.4724    3.2738 C   0  0  0  0  0  0  0  0  0  0  0  0
   -1.4193   -3.2356    0.4211 C   0  0  0  0  0  0  0  0  0  0  0  0
   -2.6017   -2.0592   -1.0118 C   0  0  0  0  0  0  0  0  0  0  0  0
  -11.5804   -4.1255    4.2529 C   0  0  0  0  0  0  0  0  0  0  0  0
   -5.7455   -0.9586    3.8834 C   0  0  0  0  0  0  0  0  0  0  0  0
  -10.1572    1.7384    0.3514 C   0  0  0  0  0  0  0  0  0  0  0  0
  -11.5376    0.3084    4.9965 C   0  0  0  0  0  0  0  0  0  0  0  0
   -0.6061   -3.6901    1.5633 C   0  0  0  0  0  0  0  0  0  0  0  0
   -3.3538   -1.0731   -1.8135 C   0  0  0  0  0  0  0  0  0  0  0  0
   -3.0143   -3.9807   -2.5781 C   0  0  0  0  0  0  0  0  0  0  0  0
   -4.2233    1.7156    4.5361 C   0  0  0  0  0  0  0  0  0  0  0  0
   -4.8661    2.9606    3.8976 C   0  0  0  0  0  0  0  0  0  0  0  0
   -6.1723    2.6437    3.1827 C   0  0  0  0  0  0  0  0  0  0  0  0
   -1.7531   -4.1082   -0.5334 N   0  0  0  0  0  0  0  0  0  0  0  0
   -3.8818   -1.1421    2.2822 N   0  0  0  0  0  0  0  0  0  0  0  0
   -2.4718   -3.3630   -1.3903 N   0  0  0  0  0  0  0  0  0  0  0  0
   -6.5770   -1.7572    3.0646 N   0  0  0  0  0  0  0  0  0  0  0  0
  -12.2489   -4.8148    3.4756 O   0  0  0  0  0  0  0  0  0  0  0  0
   -6.0693   -0.6741    5.0588 O   0  0  0  0  0  0  0  0  0  0  0  0
  -11.9954   -3.8573    5.5214 O   0  5  0  0  0  0  0  0  0  0  0  0
   -7.0956    2.1166    4.1252 O   0  0  0  0  0  0  0  0  0  0  0  0
    0.4784   -0.0707   -0.4286 Cl  0  0  0  0  0  0  0  0  0  0  0  0
  -12.3985    0.5712    2.0737 Cl  0  0  0  0  0  0  0  0  0  0  0  0
   -1.6144    2.5579    3.0534 H   0  0  0  0  0  0  0  0  0  0  0  0
  -10.2266   -4.2824    1.9280 H   0  0  0  0  0  0  0  0  0  0  0  0
  -10.0742   -2.6140    5.8991 H   0  0  0  0  0  0  0  0  0  0  0  0
   -8.0502   -3.2530    1.4118 H   0  0  0  0  0  0  0  0  0  0  0  0
   -7.8990   -1.5840    5.3834 H   0  0  0  0  0  0  0  0  0  0  0  0
    0.1049    2.0774    1.3603 H   0  0  0  0  0  0  0  0  0  0  0  0
   -7.8775    2.3253    1.6218 H   0  0  0  0  0  0  0  0  0  0  0  0
   -9.0508    1.1100    5.5700 H   0  0  0  0  0  0  0  0  0  0  0  0
   -9.8774    0.8375   -0.2057 H   0  0  0  0  0  0  0  0  0  0  0  0
  -11.2190    1.9455    0.1734 H   0  0  0  0  0  0  0  0  0  0  0  0
   -9.5930    2.5887   -0.0500 H   0  0  0  0  0  0  0  0  0  0  0  0
  -12.1386    1.1159    5.4291 H   0  0  0  0  0  0  0  0  0  0  0  0
  -12.2097   -0.4039    4.5037 H   0  0  0  0  0  0  0  0  0  0  0  0
  -11.0382   -0.2318    5.8095 H   0  0  0  0  0  0  0  0  0  0  0  0
   -1.2431   -4.0479    2.3898 H   0  0  0  0  0  0  0  0  0  0  0  0
    0.0753   -4.5138    1.2870 H   0  0  0  0  0  0  0  0  0  0  0  0
    0.0370   -2.8859    1.9621 H   0  0  0  0  0  0  0  0  0  0  0  0
   -2.6976   -0.5725   -2.5438 H   0  0  0  0  0  0  0  0  0  0  0  0
   -4.1825   -1.5404   -2.3718 H   0  0  0  0  0  0  0  0  0  0  0  0
   -3.8124   -0.2921   -1.1835 H   0  0  0  0  0  0  0  0  0  0  0  0
   -2.2725   -3.8873   -3.3757 H   0  0  0  0  0  0  0  0  0  0  0  0
   -3.2276   -5.0340   -2.3758 H   0  0  0  0  0  0  0  0  0  0  0  0
   -3.9427   -3.4744   -2.8568 H   0  0  0  0  0  0  0  0  0  0  0  0
   -3.3383    2.0379    5.1194 H   0  0  0  0  0  0  0  0  0  0  0  0
   -4.9243    1.3068    5.2904 H   0  0  0  0  0  0  0  0  0  0  0  0
   -4.1669    3.4222    3.1879 H   0  0  0  0  0  0  0  0  0  0  0  0
   -5.0486    3.7243    4.6652 H   0  0  0  0  0  0  0  0  0  0  0  0
   -6.6044    3.5468    2.7399 H   0  0  0  0  0  0  0  0  0  0  0  0
   -6.0158    1.8997    2.3951 H   0  0  0  0  0  0  0  0  0  0  0  0
   -4.1670   -2.0299    1.8921 H   0  0  0  0  0  0  0  0  0  0  0  0
   -6.2256   -1.9316    2.1263 H   0  0  0  0  0  0  0  0  0  0  0  0
  1  6  2  0  0  0  0
  1  9  1  0  0  0  0
  2  4  1  0  0  0  0
  2 12  2  0  0  0  0
  3  5  2  0  0  0  0
  3 12  1  0  0  0  0
  4 17  2  0  0  0  0
  5 17  1  0  0  0  0
  6 19  1  0  0  0  0
  7 13  1  0  0  0  0
  7 18  2  0  0  0  0
  8 14  2  0  0  0  0
  8 18  1  0  0  0  0
  9 15  1  0  0  0  0
  9 16  2  0  0  0  0
 10 11  1  0  0  0  0
 10 16  1  0  0  0  0
 10 19  2  0  0  0  0
 11 22  1  0  0  0  0
 11 23  2  0  0  0  0
 12 24  1  0  0  0  0
 13 20  2  0  0  0  0
 13 26  1  0  0  0  0
 14 20  1  0  0  0  0
 14 27  1  0  0  0  0
 15 21  2  0  0  0  0
 15 31  1  0  0  0  0
 16 35  1  0  0  0  0
 17 37  1  0  0  0  0
 18 41  1  0  0  0  0
 19 42  1  0  0  0  0
 20 43  1  0  0  0  0
 21 25  1  0  0  0  0
 21 35  1  0  0  0  0
 22 28  1  0  0  0  0
 22 34  2  0  0  0  0
 23 29  1  0  0  0  0
 23 36  1  0  0  0  0
 24 38  2  0  0  0  0
 24 40  1  0  0  0  0
 25 37  1  0  0  0  0
 25 39  2  0  0  0  0
 30 36  1  0  0  0  0
 31 32  1  0  0  0  0
 32 33  1  0  0  0  0
 33 41  1  0  0  0  0
 34 36  1  0  0  0  0
  1 44  1  0  0  0  0
  2 45  1  0  0  0  0
  3 46  1  0  0  0  0
  4 47  1  0  0  0  0
  5 48  1  0  0  0  0
  6 49  1  0  0  0  0
  7 50  1  0  0  0  0
  8 51  1  0  0  0  0
 26 52  1  0  0  0  0
 26 53  1  0  0  0  0
 26 54  1  0  0  0  0
 27 55  1  0  0  0  0
 27 56  1  0  0  0  0
 27 57  1  0  0  0  0
 28 58  1  0  0  0  0
 28 59  1  0  0  0  0
 28 60  1  0  0  0  0
 29 61  1  0  0  0  0
 29 62  1  0  0  0  0
 29 63  1  0  0  0  0
 30 64  1  0  0  0  0
 30 65  1  0  0  0  0
 30 66  1  0  0  0  0
 31 67  1  0  0  0  0
 31 68  1  0  0  0  0
 32 69  1  0  0  0  0
 32 70  1  0  0  0  0
 33 71  1  0  0  0  0
 33 72  1  0  0  0  0
 35 73  1  0  0  0  0
 37 74  1  0  0  0  0
M  CHG  1  40  -1
M  END
> <Molecule Name>
cmp_17

> <mmff94s_NoEstat>
117.28

> <Ki_nM>
22

$$$$
cmp_18
  -OEChem-07021816373D

 73 77  0     0  0  0  0  0  0999 V2000
   -1.6773    1.6439    2.4698 C   0  0  0  0  0  0  0  0  0  0  0  0
   -9.5808   -2.7138    4.9308 C   0  0  0  0  0  0  0  0  0  0  0  0
   -0.7036    1.3640    1.5041 C   0  0  0  0  0  0  0  0  0  0  0  0
   -8.3514   -2.1385    4.6291 C   0  0  0  0  0  0  0  0  0  0  0  0
   -8.6270    1.9160    2.2946 C   0  0  0  0  0  0  0  0  0  0  0  0
   -9.2871    1.2323    4.5159 C   0  0  0  0  0  0  0  0  0  0  0  0
   -9.6357   -3.6233    2.7339 C   0  0  0  0  0  0  0  0  0  0  0  0
   -2.7304    0.7292    2.6692 C   0  0  0  0  0  0  0  0  0  0  0  0
   -1.8022   -0.7245    0.9247 C   0  0  0  0  0  0  0  0  0  0  0  0
   -1.9210   -1.9434    0.1756 C   0  0  0  0  0  0  0  0  0  0  0  0
  -10.2417   -3.4718    3.9706 C   0  0  0  0  0  0  0  0  0  0  0  0
   -9.8823    1.5501    1.8090 C   0  0  0  0  0  0  0  0  0  0  0  0
  -10.5425    0.8665    4.0302 C   0  0  0  0  0  0  0  0  0  0  0  0
   -3.8586    0.6897    3.5356 C   0  0  0  0  0  0  0  0  0  0  0  0
   -2.7685   -0.4315    1.8936 C   0  0  0  0  0  0  0  0  0  0  0  0
   -8.3293    1.7570    3.6481 C   0  0  0  0  0  0  0  0  0  0  0  0
   -0.7671    0.1975    0.7446 C   0  0  0  0  0  0  0  0  0  0  0  0
  -10.8401    1.0254    2.6767 C   0  0  0  0  0  0  0  0  0  0  0  0
   -4.5471   -0.4724    3.2738 C   0  0  0  0  0  0  0  0  0  0  0  0
   -1.4193   -3.2356    0.4211 C   0  0  0  0  0  0  0  0  0  0  0  0
   -2.6017   -2.0592   -1.0118 C   0  0  0  0  0  0  0  0  0  0  0  0
   -7.8299   -2.3498    3.3629 C   0  0  0  0  0  0  0  0  0  0  0  0
  -11.5269   -4.0864    4.2542 C   0  0  0  0  0  0  0  0  0  0  0  0
   -5.7455   -0.9586    3.8834 C   0  0  0  0  0  0  0  0  0  0  0  0
  -10.1572    1.7384    0.3514 C   0  0  0  0  0  0  0  0  0  0  0  0
  -11.5376    0.3084    4.9965 C   0  0  0  0  0  0  0  0  0  0  0  0
   -0.6061   -3.6901    1.5633 C   0  0  0  0  0  0  0  0  0  0  0  0
   -3.3538   -1.0731   -1.8135 C   0  0  0  0  0  0  0  0  0  0  0  0
   -3.0143   -3.9807   -2.5781 C   0  0  0  0  0  0  0  0  0  0  0  0
   -4.2233    1.7156    4.5361 C   0  0  0  0  0  0  0  0  0  0  0  0
   -4.8661    2.9606    3.8976 C   0  0  0  0  0  0  0  0  0  0  0  0
   -6.1723    2.6437    3.1827 C   0  0  0  0  0  0  0  0  0  0  0  0
   -8.4425   -3.0799    2.4041 N   0  0  0  0  0  0  0  0  0  0  0  0
   -1.7531   -4.1082   -0.5334 N   0  0  0  0  0  0  0  0  0  0  0  0
   -3.8818   -1.1421    2.2822 N   0  0  0  0  0  0  0  0  0  0  0  0
   -2.4718   -3.3630   -1.3903 N   0  0  0  0  0  0  0  0  0  0  0  0
   -6.5770   -1.7572    3.0646 N   0  0  0  0  0  0  0  0  0  0  0  0
  -12.1836   -4.7742    3.4640 O   0  0  0  0  0  0  0  0  0  0  0  0
   -6.0693   -0.6741    5.0588 O   0  0  0  0  0  0  0  0  0  0  0  0
  -11.9614   -3.8286    5.5190 O   0  5  0  0  0  0  0  0  0  0  0  0
   -7.0956    2.1166    4.1252 O   0  0  0  0  0  0  0  0  0  0  0  0
    0.4784   -0.0707   -0.4286 Cl  0  0  0  0  0  0  0  0  0  0  0  0
  -12.3985    0.5712    2.0737 Cl  0  0  0  0  0  0  0  0  0  0  0  0
   -1.6144    2.5579    3.0534 H   0  0  0  0  0  0  0  0  0  0  0  0
  -10.0141   -2.5658    5.9163 H   0  0  0  0  0  0  0  0  0  0  0  0
    0.1049    2.0774    1.3603 H   0  0  0  0  0  0  0  0  0  0  0  0
   -7.8283   -1.5462    5.3728 H   0  0  0  0  0  0  0  0  0  0  0  0
   -7.8775    2.3253    1.6218 H   0  0  0  0  0  0  0  0  0  0  0  0
   -9.0508    1.1100    5.5700 H   0  0  0  0  0  0  0  0  0  0  0  0
  -10.1030   -4.2036    1.9440 H   0  0  0  0  0  0  0  0  0  0  0  0
   -9.8774    0.8375   -0.2057 H   0  0  0  0  0  0  0  0  0  0  0  0
  -11.2190    1.9455    0.1734 H   0  0  0  0  0  0  0  0  0  0  0  0
   -9.5930    2.5887   -0.0500 H   0  0  0  0  0  0  0  0  0  0  0  0
  -12.1386    1.1159    5.4291 H   0  0  0  0  0  0  0  0  0  0  0  0
  -12.2097   -0.4039    4.5037 H   0  0  0  0  0  0  0  0  0  0  0  0
  -11.0382   -0.2318    5.8095 H   0  0  0  0  0  0  0  0  0  0  0  0
   -1.2431   -4.0479    2.3898 H   0  0  0  0  0  0  0  0  0  0  0  0
    0.0753   -4.5138    1.2870 H   0  0  0  0  0  0  0  0  0  0  0  0
    0.0370   -2.8859    1.9621 H   0  0  0  0  0  0  0  0  0  0  0  0
   -2.6976   -0.5725   -2.5438 H   0  0  0  0  0  0  0  0  0  0  0  0
   -4.1825   -1.5404   -2.3718 H   0  0  0  0  0  0  0  0  0  0  0  0
   -3.8124   -0.2921   -1.1835 H   0  0  0  0  0  0  0  0  0  0  0  0
   -2.2725   -3.8873   -3.3757 H   0  0  0  0  0  0  0  0  0  0  0  0
   -3.2276   -5.0340   -2.3758 H   0  0  0  0  0  0  0  0  0  0  0  0
   -3.9427   -3.4744   -2.8568 H   0  0  0  0  0  0  0  0  0  0  0  0
   -3.3383    2.0379    5.1194 H   0  0  0  0  0  0  0  0  0  0  0  0
   -4.9243    1.3068    5.2904 H   0  0  0  0  0  0  0  0  0  0  0  0
   -4.1669    3.4222    3.1879 H   0  0  0  0  0  0  0  0  0  0  0  0
   -5.0486    3.7243    4.6652 H   0  0  0  0  0  0  0  0  0  0  0  0
   -6.6044    3.5468    2.7399 H   0  0  0  0  0  0  0  0  0  0  0  0
   -6.0158    1.8997    2.3951 H   0  0  0  0  0  0  0  0  0  0  0  0
   -4.1670   -2.0299    1.8921 H   0  0  0  0  0  0  0  0  0  0  0  0
   -6.2256   -1.9316    2.1263 H   0  0  0  0  0  0  0  0  0  0  0  0
  1  3  2  0  0  0  0
  1  8  1  0  0  0  0
  2  4  2  0  0  0  0
  2 11  1  0  0  0  0
  3 17  1  0  0  0  0
  4 22  1  0  0  0  0
  5 12  1  0  0  0  0
  5 16  2  0  0  0  0
  6 13  2  0  0  0  0
  6 16  1  0  0  0  0
  7 11  2  0  0  0  0
  7 33  1  0  0  0  0
  8 14  1  0  0  0  0
  8 15  2  0  0  0  0
  9 10  1  0  0  0  0
  9 15  1  0  0  0  0
  9 17  2  0  0  0  0
 10 20  1  0  0  0  0
 10 21  2  0  0  0  0
 11 23  1  0  0  0  0
 12 18  2  0  0  0  0
 12 25  1  0  0  0  0
 13 18  1  0  0  0  0
 13 26  1  0  0  0  0
 14 19  2  0  0  0  0
 14 30  1  0  0  0  0
 15 35  1  0  0  0  0
 16 41  1  0  0  0  0
 17 42  1  0  0  0  0
 18 43  1  0  0  0  0
 19 24  1  0  0  0  0
 19 35  1  0  0  0  0
 20 27  1  0  0  0  0
 20 34  2  0  0  0  0
 21 28  1  0  0  0  0
 21 36  1  0  0  0  0
 22 33  2  0  0  0  0
 22 37  1  0  0  0  0
 23 38  2  0  0  0  0
 23 40  1  0  0  0  0
 24 37  1  0  0  0  0
 24 39  2  0  0  0  0
 29 36  1  0  0  0  0
 30 31  1  0  0  0  0
 31 32  1  0  0  0  0
 32 41  1  0  0  0  0
 34 36  1  0  0  0  0
  1 44  1  0  0  0  0
  2 45  1  0  0  0  0
  3 46  1  0  0  0  0
  4 47  1  0  0  0  0
  5 48  1  0  0  0  0
  6 49  1  0  0  0  0
  7 50  1  0  0  0  0
 25 51  1  0  0  0  0
 25 52  1  0  0  0  0
 25 53  1  0  0  0  0
 26 54  1  0  0  0  0
 26 55  1  0  0  0  0
 26 56  1  0  0  0  0
 27 57  1  0  0  0  0
 27 58  1  0  0  0  0
 27 59  1  0  0  0  0
 28 60  1  0  0  0  0
 28 61  1  0  0  0  0
 28 62  1  0  0  0  0
 29 63  1  0  0  0  0
 29 64  1  0  0  0  0
 29 65  1  0  0  0  0
 30 66  1  0  0  0  0
 30 67  1  0  0  0  0
 31 68  1  0  0  0  0
 31 69  1  0  0  0  0
 32 70  1  0  0  0  0
 32 71  1  0  0  0  0
 35 72  1  0  0  0  0
 37 73  1  0  0  0  0
M  CHG  1  40  -1
M  END
> <Molecule Name>
cmp_18

> <mmff94s_NoEstat>
118.85

> <Ki_nM>
29

$$$$
cmp_19
  -OEChem-07021816373D

 81 86  0     0  0  0  0  0  0999 V2000
    1.6774    2.8678    0.0171 C   0  0  0  0  0  0  0  0  0  0  0  0
    2.5044    2.9946    1.1371 C   0  0  0  0  0  0  0  0  0  0  0  0
   -1.4323   -4.4011   -5.0903 C   0  0  0  0  0  0  0  0  0  0  0  0
   -1.6124   -4.6075   -3.7017 C   0  0  0  0  0  0  0  0  0  0  0  0
    1.9462   -2.0444   -4.5031 C   0  0  0  0  0  0  0  0  0  0  0  0
    3.8910   -0.8339   -5.2709 C   0  0  0  0  0  0  0  0  0  0  0  0
    0.8261    1.7495   -0.0918 C   0  0  0  0  0  0  0  0  0  0  0  0
    1.6528    0.9149    2.0550 C   0  0  0  0  0  0  0  0  0  0  0  0
    1.7107   -0.0992    3.0688 C   0  0  0  0  0  0  0  0  0  0  0  0
    2.6657   -3.2379   -4.5622 C   0  0  0  0  0  0  0  0  0  0  0  0
    4.6105   -2.0273   -5.3300 C   0  0  0  0  0  0  0  0  0  0  0  0
   -0.1123    1.3238   -1.0703 C   0  0  0  0  0  0  0  0  0  0  0  0
    0.8253    0.7925    0.9271 C   0  0  0  0  0  0  0  0  0  0  0  0
    2.5588   -0.8424   -4.8575 C   0  0  0  0  0  0  0  0  0  0  0  0
    2.4912    2.0303    2.1399 C   0  0  0  0  0  0  0  0  0  0  0  0
    3.9979   -3.2294   -4.9756 C   0  0  0  0  0  0  0  0  0  0  0  0
   -0.6434    0.1118   -0.6704 C   0  0  0  0  0  0  0  0  0  0  0  0
   -1.8267   -3.1069   -5.3384 C   0  0  0  0  0  0  0  0  0  0  0  0
    0.9626   -0.2753    4.2483 C   0  0  0  0  0  0  0  0  0  0  0  0
    2.5857   -1.1578    3.0560 C   0  0  0  0  0  0  0  0  0  0  0  0
   -2.1037   -3.4246   -3.2002 C   0  0  0  0  0  0  0  0  0  0  0  0
   -1.6228   -0.7027   -1.3783 C   0  0  0  0  0  0  0  0  0  0  0  0
   -1.8686   -2.3474   -6.5411 C   0  0  0  0  0  0  0  0  0  0  0  0
   -0.1609   -2.6405    0.8079 C   0  0  0  0  0  0  0  0  0  0  0  0
   -0.5391   -1.2817    1.3897 C   0  0  0  0  0  0  0  0  0  0  0  0
   -0.2913   -2.7336   -0.7114 C   0  0  0  0  0  0  0  0  0  0  0  0
    1.9685   -4.5019   -4.1729 C   0  0  0  0  0  0  0  0  0  0  0  0
    6.0356   -1.9706   -5.7788 C   0  0  0  0  0  0  0  0  0  0  0  0
   -0.1226    0.5757    4.7687 C   0  0  0  0  0  0  0  0  0  0  0  0
    3.6351   -1.5537    2.0954 C   0  0  0  0  0  0  0  0  0  0  0  0
    2.9781   -3.0848    4.6209 C   0  0  0  0  0  0  0  0  0  0  0  0
   -0.4266    2.0467   -2.3234 C   0  0  0  0  0  0  0  0  0  0  0  0
   -2.5027   -2.9802   -1.8227 C   0  0  0  0  0  0  0  0  0  0  0  0
    0.6610    1.8638   -3.3970 C   0  0  0  0  0  0  0  0  0  0  0  0
    0.8229    0.4111   -3.8225 C   0  0  0  0  0  0  0  0  0  0  0  0
    1.3302   -1.3604    4.9349 N   0  0  0  0  0  0  0  0  0  0  0  0
   -0.1002   -0.1654    0.5711 N   0  0  0  0  0  0  0  0  0  0  0  0
    2.3187   -1.8758    4.1845 N   0  0  0  0  0  0  0  0  0  0  0  0
   -1.5094   -2.1000   -1.2255 N   0  0  0  0  0  0  0  0  0  0  0  0
   -2.4952   -0.1812   -2.0743 O   0  0  0  0  0  0  0  0  0  0  0  0
   -2.2499   -1.1591   -6.6616 O   0  0  0  0  0  0  0  0  0  0  0  0
   -2.2372   -2.5048   -4.1915 O   0  0  0  0  0  0  0  0  0  0  0  0
   -1.4346   -3.0389   -7.6457 O   0  5  0  0  0  0  0  0  0  0  0  0
    1.8516    0.3305   -4.7993 O   0  0  0  0  0  0  0  0  0  0  0  0
    3.5610    2.2712    3.4842 Cl  0  0  0  0  0  0  0  0  0  0  0  0
    4.8910   -4.7111   -5.0491 Cl  0  0  0  0  0  0  0  0  0  0  0  0
    1.6983    3.6278   -0.7590 H   0  0  0  0  0  0  0  0  0  0  0  0
    3.1578    3.8616    1.2052 H   0  0  0  0  0  0  0  0  0  0  0  0
   -1.0615   -5.1097   -5.8171 H   0  0  0  0  0  0  0  0  0  0  0  0
   -1.4093   -5.5077   -3.1393 H   0  0  0  0  0  0  0  0  0  0  0  0
    0.9077   -2.0464   -4.1814 H   0  0  0  0  0  0  0  0  0  0  0  0
    4.3645    0.1052   -5.5463 H   0  0  0  0  0  0  0  0  0  0  0  0
    0.8725   -2.8854    1.0816 H   0  0  0  0  0  0  0  0  0  0  0  0
   -0.7961   -3.4022    1.2766 H   0  0  0  0  0  0  0  0  0  0  0  0
   -1.6347   -1.2016    1.4303 H   0  0  0  0  0  0  0  0  0  0  0  0
   -0.2270   -1.1918    2.4258 H   0  0  0  0  0  0  0  0  0  0  0  0
    0.5688   -2.2501   -1.1913 H   0  0  0  0  0  0  0  0  0  0  0  0
   -0.2672   -3.7851   -1.0209 H   0  0  0  0  0  0  0  0  0  0  0  0
    1.4906   -4.9552   -5.0483 H   0  0  0  0  0  0  0  0  0  0  0  0
    2.6723   -5.2247   -3.7436 H   0  0  0  0  0  0  0  0  0  0  0  0
    1.2012   -4.3115   -3.4131 H   0  0  0  0  0  0  0  0  0  0  0  0
    6.6975   -1.8227   -4.9183 H   0  0  0  0  0  0  0  0  0  0  0  0
    6.3257   -2.8962   -6.2898 H   0  0  0  0  0  0  0  0  0  0  0  0
    6.1935   -1.1496   -6.4883 H   0  0  0  0  0  0  0  0  0  0  0  0
   -1.1048    0.2466    4.3897 H   0  0  0  0  0  0  0  0  0  0  0  0
   -0.1693    0.5620    5.8718 H   0  0  0  0  0  0  0  0  0  0  0  0
    0.0068    1.6349    4.4842 H   0  0  0  0  0  0  0  0  0  0  0  0
    4.6041   -1.0983    2.3565 H   0  0  0  0  0  0  0  0  0  0  0  0
    3.7756   -2.6475    2.0646 H   0  0  0  0  0  0  0  0  0  0  0  0
    3.3877   -1.2487    1.0644 H   0  0  0  0  0  0  0  0  0  0  0  0
    3.8261   -2.7987    5.2486 H   0  0  0  0  0  0  0  0  0  0  0  0
    2.2733   -3.6997    5.1875 H   0  0  0  0  0  0  0  0  0  0  0  0
    3.3202   -3.6456    3.7466 H   0  0  0  0  0  0  0  0  0  0  0  0
   -0.5575    3.1301   -2.1360 H   0  0  0  0  0  0  0  0  0  0  0  0
   -1.3952    1.7128   -2.7432 H   0  0  0  0  0  0  0  0  0  0  0  0
   -3.4564   -2.4420   -1.8518 H   0  0  0  0  0  0  0  0  0  0  0  0
   -2.6338   -3.8385   -1.1555 H   0  0  0  0  0  0  0  0  0  0  0  0
    1.6227    2.2426   -3.0267 H   0  0  0  0  0  0  0  0  0  0  0  0
    0.4265    2.4760   -4.2779 H   0  0  0  0  0  0  0  0  0  0  0  0
    1.1022   -0.2168   -2.9704 H   0  0  0  0  0  0  0  0  0  0  0  0
   -0.1040    0.0269   -4.2604 H   0  0  0  0  0  0  0  0  0  0  0  0
  1  2  2  0  0  0  0
  1  7  1  0  0  0  0
  2 15  1  0  0  0  0
  3  4  1  0  0  0  0
  3 18  2  0  0  0  0
  4 21  2  0  0  0  0
  5 10  1  0  0  0  0
  5 14  2  0  0  0  0
  6 11  2  0  0  0  0
  6 14  1  0  0  0  0
  7 12  1  0  0  0  0
  7 13  2  0  0  0  0
  8  9  1  0  0  0  0
  8 13  1  0  0  0  0
  8 15  2  0  0  0  0
  9 19  1  0  0  0  0
  9 20  2  0  0  0  0
 10 16  2  0  0  0  0
 10 27  1  0  0  0  0
 11 16  1  0  0  0  0
 11 28  1  0  0  0  0
 12 17  2  0  0  0  0
 12 32  1  0  0  0  0
 13 37  1  0  0  0  0
 14 44  1  0  0  0  0
 15 45  1  0  0  0  0
 16 46  1  0  0  0  0
 17 22  1  0  0  0  0
 17 37  1  0  0  0  0
 18 23  1  0  0  0  0
 18 42  1  0  0  0  0
 19 29  1  0  0  0  0
 19 36  2  0  0  0  0
 20 30  1  0  0  0  0
 20 38  1  0  0  0  0
 21 33  1  0  0  0  0
 21 42  1  0  0  0  0
 22 39  1  0  0  0  0
 22 40  2  0  0  0  0
 23 41  2  0  0  0  0
 23 43  1  0  0  0  0
 24 25  1  0  0  0  0
 24 26  1  0  0  0  0
 25 37  1  0  0  0  0
 26 39  1  0  0  0  0
 31 38  1  0  0  0  0
 32 34  1  0  0  0  0
 33 39  1  0  0  0  0
 34 35  1  0  0  0  0
 35 44  1  0  0  0  0
 36 38  1  0  0  0  0
  1 47  1  0  0  0  0
  2 48  1  0  0  0  0
  3 49  1  0  0  0  0
  4 50  1  0  0  0  0
  5 51  1  0  0  0  0
  6 52  1  0  0  0  0
 24 53  1  0  0  0  0
 24 54  1  0  0  0  0
 25 55  1  0  0  0  0
 25 56  1  0  0  0  0
 26 57  1  0  0  0  0
 26 58  1  0  0  0  0
 27 59  1  0  0  0  0
 27 60  1  0  0  0  0
 27 61  1  0  0  0  0
 28 62  1  0  0  0  0
 28 63  1  0  0  0  0
 28 64  1  0  0  0  0
 29 65  1  0  0  0  0
 29 66  1  0  0  0  0
 29 67  1  0  0  0  0
 30 68  1  0  0  0  0
 30 69  1  0  0  0  0
 30 70  1  0  0  0  0
 31 71  1  0  0  0  0
 31 72  1  0  0  0  0
 31 73  1  0  0  0  0
 32 74  1  0  0  0  0
 32 75  1  0  0  0  0
 33 76  1  0  0  0  0
 33 77  1  0  0  0  0
 34 78  1  0  0  0  0
 34 79  1  0  0  0  0
 35 80  1  0  0  0  0
 35 81  1  0  0  0  0
M  CHG  1  43  -1
M  END
> <Molecule Name>
cmp_19

> <mmff94s_NoEstat>
109.57

> <Ki_nM>
2.9

$$$$
cmp_20
  -OEChem-07021816373D

 84 89  0     0  0  0  0  0  0999 V2000
   -3.8791   -5.9192    0.1373 C   0  0  0  0  0  0  0  0  0  0  0  0
    1.6774    2.8678    0.0171 C   0  0  0  0  0  0  0  0  0  0  0  0
   -4.6054   -5.2697    1.1354 C   0  0  0  0  0  0  0  0  0  0  0  0
   -3.1955   -5.1750   -0.8242 C   0  0  0  0  0  0  0  0  0  0  0  0
    2.5044    2.9946    1.1371 C   0  0  0  0  0  0  0  0  0  0  0  0
   -3.9647   -3.1318    0.2103 C   0  0  0  0  0  0  0  0  0  0  0  0
    0.6843   -2.1577   -4.6747 C   0  0  0  0  0  0  0  0  0  0  0  0
   -1.6202   -1.8691   -5.3403 C   0  0  0  0  0  0  0  0  0  0  0  0
    0.8261    1.7495   -0.0918 C   0  0  0  0  0  0  0  0  0  0  0  0
    1.6528    0.9149    2.0550 C   0  0  0  0  0  0  0  0  0  0  0  0
    1.7107   -0.0992    3.0688 C   0  0  0  0  0  0  0  0  0  0  0  0
   -4.6483   -3.8760    1.1719 C   0  0  0  0  0  0  0  0  0  0  0  0
   -3.2383   -3.7813   -0.7878 C   0  0  0  0  0  0  0  0  0  0  0  0
    0.6425   -3.4838   -5.1050 C   0  0  0  0  0  0  0  0  0  0  0  0
   -1.6620   -3.1953   -5.7706 C   0  0  0  0  0  0  0  0  0  0  0  0
   -0.1123    1.3238   -1.0703 C   0  0  0  0  0  0  0  0  0  0  0  0
    0.8253    0.7925    0.9271 C   0  0  0  0  0  0  0  0  0  0  0  0
   -0.4471   -1.3503   -4.7923 C   0  0  0  0  0  0  0  0  0  0  0  0
    2.4912    2.0303    2.1399 C   0  0  0  0  0  0  0  0  0  0  0  0
   -0.5306   -4.0026   -5.6529 C   0  0  0  0  0  0  0  0  0  0  0  0
   -0.6434    0.1118   -0.6704 C   0  0  0  0  0  0  0  0  0  0  0  0
    0.9626   -0.2753    4.2483 C   0  0  0  0  0  0  0  0  0  0  0  0
    2.5857   -1.1578    3.0560 C   0  0  0  0  0  0  0  0  0  0  0  0
   -1.6228   -0.7027   -1.3783 C   0  0  0  0  0  0  0  0  0  0  0  0
   -5.4052   -3.1992    2.2130 C   0  0  0  0  0  0  0  0  0  0  0  0
   -0.1609   -2.6405    0.8079 C   0  0  0  0  0  0  0  0  0  0  0  0
   -0.5391   -1.2817    1.3897 C   0  0  0  0  0  0  0  0  0  0  0  0
   -0.2913   -2.7336   -0.7114 C   0  0  0  0  0  0  0  0  0  0  0  0
    1.8789   -4.3119   -4.9596 C   0  0  0  0  0  0  0  0  0  0  0  0
   -2.9405   -3.7086   -6.3514 C   0  0  0  0  0  0  0  0  0  0  0  0
   -0.1226    0.5757    4.7687 C   0  0  0  0  0  0  0  0  0  0  0  0
    3.6351   -1.5537    2.0954 C   0  0  0  0  0  0  0  0  0  0  0  0
    2.9781   -3.0848    4.6209 C   0  0  0  0  0  0  0  0  0  0  0  0
   -0.4266    2.0467   -2.3234 C   0  0  0  0  0  0  0  0  0  0  0  0
   -2.5027   -2.9802   -1.8227 C   0  0  0  0  0  0  0  0  0  0  0  0
    0.6610    1.8638   -3.3970 C   0  0  0  0  0  0  0  0  0  0  0  0
    0.8229    0.4111   -3.8225 C   0  0  0  0  0  0  0  0  0  0  0  0
    1.3302   -1.3604    4.9349 N   0  0  0  0  0  0  0  0  0  0  0  0
   -0.1002   -0.1654    0.5711 N   0  0  0  0  0  0  0  0  0  0  0  0
    2.3187   -1.8758    4.1845 N   0  0  0  0  0  0  0  0  0  0  0  0
   -1.5094   -2.1000   -1.2255 N   0  0  0  0  0  0  0  0  0  0  0  0
   -2.4952   -0.1812   -2.0743 O   0  0  0  0  0  0  0  0  0  0  0  0
   -6.0445   -3.7569    3.1110 O   0  0  0  0  0  0  0  0  0  0  0  0
   -5.3419   -1.8436    2.1048 O   0  5  0  0  0  0  0  0  0  0  0  0
   -0.4058   -0.0470   -4.3695 O   0  0  0  0  0  0  0  0  0  0  0  0
    3.5610    2.2712    3.4842 Cl  0  0  0  0  0  0  0  0  0  0  0  0
   -0.5824   -5.6491   -6.1869 Cl  0  0  0  0  0  0  0  0  0  0  0  0
   -3.8467   -7.0045    0.1082 H   0  0  0  0  0  0  0  0  0  0  0  0
    1.6983    3.6278   -0.7590 H   0  0  0  0  0  0  0  0  0  0  0  0
   -5.1340   -5.8595    1.8800 H   0  0  0  0  0  0  0  0  0  0  0  0
   -2.6315   -5.6896   -1.5979 H   0  0  0  0  0  0  0  0  0  0  0  0
    3.1578    3.8616    1.2052 H   0  0  0  0  0  0  0  0  0  0  0  0
   -3.9980   -2.0449    0.2366 H   0  0  0  0  0  0  0  0  0  0  0  0
    1.5966   -1.7492   -4.2470 H   0  0  0  0  0  0  0  0  0  0  0  0
   -2.4997   -1.2363   -5.4300 H   0  0  0  0  0  0  0  0  0  0  0  0
    0.8725   -2.8854    1.0816 H   0  0  0  0  0  0  0  0  0  0  0  0
   -0.7961   -3.4022    1.2766 H   0  0  0  0  0  0  0  0  0  0  0  0
   -1.6347   -1.2016    1.4303 H   0  0  0  0  0  0  0  0  0  0  0  0
   -0.2270   -1.1918    2.4258 H   0  0  0  0  0  0  0  0  0  0  0  0
    0.5688   -2.2501   -1.1913 H   0  0  0  0  0  0  0  0  0  0  0  0
   -0.2672   -3.7851   -1.0209 H   0  0  0  0  0  0  0  0  0  0  0  0
    1.8846   -4.8154   -3.9866 H   0  0  0  0  0  0  0  0  0  0  0  0
    1.9404   -5.0712   -5.7481 H   0  0  0  0  0  0  0  0  0  0  0  0
    2.7803   -3.6927   -5.0398 H   0  0  0  0  0  0  0  0  0  0  0  0
   -2.9567   -3.5444   -7.4345 H   0  0  0  0  0  0  0  0  0  0  0  0
   -3.0597   -4.7810   -6.1572 H   0  0  0  0  0  0  0  0  0  0  0  0
   -3.8066   -3.2041   -5.9068 H   0  0  0  0  0  0  0  0  0  0  0  0
   -1.1048    0.2466    4.3897 H   0  0  0  0  0  0  0  0  0  0  0  0
   -0.1693    0.5620    5.8718 H   0  0  0  0  0  0  0  0  0  0  0  0
    0.0068    1.6349    4.4842 H   0  0  0  0  0  0  0  0  0  0  0  0
    4.6041   -1.0983    2.3565 H   0  0  0  0  0  0  0  0  0  0  0  0
    3.7756   -2.6475    2.0646 H   0  0  0  0  0  0  0  0  0  0  0  0
    3.3877   -1.2487    1.0644 H   0  0  0  0  0  0  0  0  0  0  0  0
    3.8261   -2.7987    5.2486 H   0  0  0  0  0  0  0  0  0  0  0  0
    2.2733   -3.6997    5.1875 H   0  0  0  0  0  0  0  0  0  0  0  0
    3.3202   -3.6456    3.7466 H   0  0  0  0  0  0  0  0  0  0  0  0
   -0.5575    3.1301   -2.1360 H   0  0  0  0  0  0  0  0  0  0  0  0
   -1.3952    1.7128   -2.7432 H   0  0  0  0  0  0  0  0  0  0  0  0
   -1.9871   -3.6412   -2.5280 H   0  0  0  0  0  0  0  0  0  0  0  0
   -3.1934   -2.3601   -2.4037 H   0  0  0  0  0  0  0  0  0  0  0  0
    1.6227    2.2426   -3.0267 H   0  0  0  0  0  0  0  0  0  0  0  0
    0.4265    2.4760   -4.2779 H   0  0  0  0  0  0  0  0  0  0  0  0
    1.6017    0.3120   -4.5854 H   0  0  0  0  0  0  0  0  0  0  0  0
    1.0797   -0.2203   -2.9661 H   0  0  0  0  0  0  0  0  0  0  0  0
  1  3  1  0  0  0  0
  1  4  2  0  0  0  0
  2  5  2  0  0  0  0
  2  9  1  0  0  0  0
  3 12  2  0  0  0  0
  4 13  1  0  0  0  0
  5 19  1  0  0  0  0
  6 12  1  0  0  0  0
  6 13  2  0  0  0  0
  7 14  1  0  0  0  0
  7 18  2  0  0  0  0
  8 15  2  0  0  0  0
  8 18  1  0  0  0  0
  9 16  1  0  0  0  0
  9 17  2  0  0  0  0
 10 11  1  0  0  0  0
 10 17  1  0  0  0  0
 10 19  2  0  0  0  0
 11 22  1  0  0  0  0
 11 23  2  0  0  0  0
 12 25  1  0  0  0  0
 13 35  1  0  0  0  0
 14 20  2  0  0  0  0
 14 29  1  0  0  0  0
 15 20  1  0  0  0  0
 15 30  1  0  0  0  0
 16 21  2  0  0  0  0
 16 34  1  0  0  0  0
 17 39  1  0  0  0  0
 18 45  1  0  0  0  0
 19 46  1  0  0  0  0
 20 47  1  0  0  0  0
 21 24  1  0  0  0  0
 21 39  1  0  0  0  0
 22 31  1  0  0  0  0
 22 38  2  0  0  0  0
 23 32  1  0  0  0  0
 23 40  1  0  0  0  0
 24 41  1  0  0  0  0
 24 42  2  0  0  0  0
 25 43  2  0  0  0  0
 25 44  1  0  0  0  0
 26 27  1  0  0  0  0
 26 28  1  0  0  0  0
 27 39  1  0  0  0  0
 28 41  1  0  0  0  0
 33 40  1  0  0  0  0
 34 36  1  0  0  0  0
 35 41  1  0  0  0  0
 36 37  1  0  0  0  0
 37 45  1  0  0  0  0
 38 40  1  0  0  0  0
  1 48  1  0  0  0  0
  2 49  1  0  0  0  0
  3 50  1  0  0  0  0
  4 51  1  0  0  0  0
  5 52  1  0  0  0  0
  6 53  1  0  0  0  0
  7 54  1  0  0  0  0
  8 55  1  0  0  0  0
 26 56  1  0  0  0  0
 26 57  1  0  0  0  0
 27 58  1  0  0  0  0
 27 59  1  0  0  0  0
 28 60  1  0  0  0  0
 28 61  1  0  0  0  0
 29 62  1  0  0  0  0
 29 63  1  0  0  0  0
 29 64  1  0  0  0  0
 30 65  1  0  0  0  0
 30 66  1  0  0  0  0
 30 67  1  0  0  0  0
 31 68  1  0  0  0  0
 31 69  1  0  0  0  0
 31 70  1  0  0  0  0
 32 71  1  0  0  0  0
 32 72  1  0  0  0  0
 32 73  1  0  0  0  0
 33 74  1  0  0  0  0
 33 75  1  0  0  0  0
 33 76  1  0  0  0  0
 34 77  1  0  0  0  0
 34 78  1  0  0  0  0
 35 79  1  0  0  0  0
 35 80  1  0  0  0  0
 36 81  1  0  0  0  0
 36 82  1  0  0  0  0
 37 83  1  0  0  0  0
 37 84  1  0  0  0  0
M  CHG  1  44  -1
M  END
> <Molecule Name>
cmp_20

> <mmff94s_NoEstat>
131.57

> <Ki_nM>
4.9

$$$$
cmp_21
  -OEChem-07021816373D

 83 88  0     0  0  0  0  0  0999 V2000
    1.6774    2.8678    0.0171 C   0  0  0  0  0  0  0  0  0  0  0  0
    2.5044    2.9946    1.1371 C   0  0  0  0  0  0  0  0  0  0  0  0
   -4.5575   -5.2802    1.0718 C   0  0  0  0  0  0  0  0  0  0  0  0
   -3.9555   -3.1221    0.1975 C   0  0  0  0  0  0  0  0  0  0  0  0
    0.6843   -2.1577   -4.6747 C   0  0  0  0  0  0  0  0  0  0  0  0
   -1.6202   -1.8691   -5.3403 C   0  0  0  0  0  0  0  0  0  0  0  0
   -3.8135   -5.8429    0.0472 C   0  0  0  0  0  0  0  0  0  0  0  0
    0.8261    1.7495   -0.0918 C   0  0  0  0  0  0  0  0  0  0  0  0
    1.6528    0.9149    2.0550 C   0  0  0  0  0  0  0  0  0  0  0  0
    1.7107   -0.0992    3.0688 C   0  0  0  0  0  0  0  0  0  0  0  0
   -4.6249   -3.8932    1.1413 C   0  0  0  0  0  0  0  0  0  0  0  0
    0.6425   -3.4838   -5.1050 C   0  0  0  0  0  0  0  0  0  0  0  0
   -1.6620   -3.1953   -5.7706 C   0  0  0  0  0  0  0  0  0  0  0  0
   -0.1123    1.3238   -1.0703 C   0  0  0  0  0  0  0  0  0  0  0  0
    0.8253    0.7925    0.9271 C   0  0  0  0  0  0  0  0  0  0  0  0
   -0.4471   -1.3503   -4.7923 C   0  0  0  0  0  0  0  0  0  0  0  0
    2.4912    2.0303    2.1399 C   0  0  0  0  0  0  0  0  0  0  0  0
   -0.5306   -4.0026   -5.6529 C   0  0  0  0  0  0  0  0  0  0  0  0
   -0.6434    0.1118   -0.6704 C   0  0  0  0  0  0  0  0  0  0  0  0
   -3.2383   -3.7813   -0.7878 C   0  0  0  0  0  0  0  0  0  0  0  0
    0.9626   -0.2753    4.2483 C   0  0  0  0  0  0  0  0  0  0  0  0
    2.5857   -1.1578    3.0560 C   0  0  0  0  0  0  0  0  0  0  0  0
   -1.6228   -0.7027   -1.3783 C   0  0  0  0  0  0  0  0  0  0  0  0
   -5.3910   -3.2524    2.1980 C   0  0  0  0  0  0  0  0  0  0  0  0
   -0.1609   -2.6405    0.8079 C   0  0  0  0  0  0  0  0  0  0  0  0
   -0.5391   -1.2817    1.3897 C   0  0  0  0  0  0  0  0  0  0  0  0
   -0.2913   -2.7336   -0.7114 C   0  0  0  0  0  0  0  0  0  0  0  0
    1.8789   -4.3119   -4.9596 C   0  0  0  0  0  0  0  0  0  0  0  0
   -2.9405   -3.7086   -6.3514 C   0  0  0  0  0  0  0  0  0  0  0  0
   -0.1226    0.5757    4.7687 C   0  0  0  0  0  0  0  0  0  0  0  0
    3.6351   -1.5537    2.0954 C   0  0  0  0  0  0  0  0  0  0  0  0
    2.9781   -3.0848    4.6209 C   0  0  0  0  0  0  0  0  0  0  0  0
   -0.4266    2.0467   -2.3234 C   0  0  0  0  0  0  0  0  0  0  0  0
   -2.5027   -2.9802   -1.8227 C   0  0  0  0  0  0  0  0  0  0  0  0
    0.6610    1.8638   -3.3970 C   0  0  0  0  0  0  0  0  0  0  0  0
    0.8229    0.4111   -3.8225 C   0  0  0  0  0  0  0  0  0  0  0  0
   -3.1498   -5.1266   -0.8877 N   0  0  0  0  0  0  0  0  0  0  0  0
    1.3302   -1.3604    4.9349 N   0  0  0  0  0  0  0  0  0  0  0  0
   -0.1002   -0.1654    0.5711 N   0  0  0  0  0  0  0  0  0  0  0  0
    2.3187   -1.8758    4.1845 N   0  0  0  0  0  0  0  0  0  0  0  0
   -1.5094   -2.1000   -1.2255 N   0  0  0  0  0  0  0  0  0  0  0  0
   -2.4952   -0.1812   -2.0743 O   0  0  0  0  0  0  0  0  0  0  0  0
   -6.0195   -3.8403    3.0845 O   0  0  0  0  0  0  0  0  0  0  0  0
   -5.3505   -1.8938    2.1201 O   0  5  0  0  0  0  0  0  0  0  0  0
   -0.4058   -0.0470   -4.3695 O   0  0  0  0  0  0  0  0  0  0  0  0
    3.5610    2.2712    3.4842 Cl  0  0  0  0  0  0  0  0  0  0  0  0
   -0.5824   -5.6491   -6.1869 Cl  0  0  0  0  0  0  0  0  0  0  0  0
    1.6983    3.6278   -0.7590 H   0  0  0  0  0  0  0  0  0  0  0  0
    3.1578    3.8616    1.2052 H   0  0  0  0  0  0  0  0  0  0  0  0
   -5.0689   -5.9106    1.7916 H   0  0  0  0  0  0  0  0  0  0  0  0
   -3.9923   -2.0377    0.2316 H   0  0  0  0  0  0  0  0  0  0  0  0
    1.5966   -1.7492   -4.2470 H   0  0  0  0  0  0  0  0  0  0  0  0
   -2.4997   -1.2363   -5.4300 H   0  0  0  0  0  0  0  0  0  0  0  0
   -3.7296   -6.9203   -0.0507 H   0  0  0  0  0  0  0  0  0  0  0  0
    0.8725   -2.8854    1.0816 H   0  0  0  0  0  0  0  0  0  0  0  0
   -0.7961   -3.4022    1.2766 H   0  0  0  0  0  0  0  0  0  0  0  0
   -1.6347   -1.2016    1.4303 H   0  0  0  0  0  0  0  0  0  0  0  0
   -0.2270   -1.1918    2.4258 H   0  0  0  0  0  0  0  0  0  0  0  0
    0.5688   -2.2501   -1.1913 H   0  0  0  0  0  0  0  0  0  0  0  0
   -0.2672   -3.7851   -1.0209 H   0  0  0  0  0  0  0  0  0  0  0  0
    1.8846   -4.8154   -3.9866 H   0  0  0  0  0  0  0  0  0  0  0  0
    1.9404   -5.0712   -5.7481 H   0  0  0  0  0  0  0  0  0  0  0  0
    2.7803   -3.6927   -5.0398 H   0  0  0  0  0  0  0  0  0  0  0  0
   -2.9567   -3.5444   -7.4345 H   0  0  0  0  0  0  0  0  0  0  0  0
   -3.0597   -4.7810   -6.1572 H   0  0  0  0  0  0  0  0  0  0  0  0
   -3.8066   -3.2041   -5.9068 H   0  0  0  0  0  0  0  0  0  0  0  0
   -1.1048    0.2466    4.3897 H   0  0  0  0  0  0  0  0  0  0  0  0
   -0.1693    0.5620    5.8718 H   0  0  0  0  0  0  0  0  0  0  0  0
    0.0068    1.6349    4.4842 H   0  0  0  0  0  0  0  0  0  0  0  0
    4.6041   -1.0983    2.3565 H   0  0  0  0  0  0  0  0  0  0  0  0
    3.7756   -2.6475    2.0646 H   0  0  0  0  0  0  0  0  0  0  0  0
    3.3877   -1.2487    1.0644 H   0  0  0  0  0  0  0  0  0  0  0  0
    3.8261   -2.7987    5.2486 H   0  0  0  0  0  0  0  0  0  0  0  0
    2.2733   -3.6997    5.1875 H   0  0  0  0  0  0  0  0  0  0  0  0
    3.3202   -3.6456    3.7466 H   0  0  0  0  0  0  0  0  0  0  0  0
   -0.5575    3.1301   -2.1360 H   0  0  0  0  0  0  0  0  0  0  0  0
   -1.3952    1.7128   -2.7432 H   0  0  0  0  0  0  0  0  0  0  0  0
   -1.9871   -3.6412   -2.5280 H   0  0  0  0  0  0  0  0  0  0  0  0
   -3.1934   -2.3601   -2.4037 H   0  0  0  0  0  0  0  0  0  0  0  0
    1.6227    2.2426   -3.0267 H   0  0  0  0  0  0  0  0  0  0  0  0
    0.4265    2.4760   -4.2779 H   0  0  0  0  0  0  0  0  0  0  0  0
    1.6017    0.3120   -4.5854 H   0  0  0  0  0  0  0  0  0  0  0  0
    1.0797   -0.2203   -2.9661 H   0  0  0  0  0  0  0  0  0  0  0  0
  1  2  2  0  0  0  0
  1  8  1  0  0  0  0
  2 17  1  0  0  0  0
  3  7  1  0  0  0  0
  3 11  2  0  0  0  0
  4 11  1  0  0  0  0
  4 20  2  0  0  0  0
  5 12  2  0  0  0  0
  5 16  1  0  0  0  0
  6 13  1  0  0  0  0
  6 16  2  0  0  0  0
  7 37  2  0  0  0  0
  8 14  1  0  0  0  0
  8 15  2  0  0  0  0
  9 10  1  0  0  0  0
  9 15  1  0  0  0  0
  9 17  2  0  0  0  0
 10 21  1  0  0  0  0
 10 22  2  0  0  0  0
 11 24  1  0  0  0  0
 12 18  1  0  0  0  0
 12 28  1  0  0  0  0
 13 18  2  0  0  0  0
 13 29  1  0  0  0  0
 14 19  2  0  0  0  0
 14 33  1  0  0  0  0
 15 39  1  0  0  0  0
 16 45  1  0  0  0  0
 17 46  1  0  0  0  0
 18 47  1  0  0  0  0
 19 23  1  0  0  0  0
 19 39  1  0  0  0  0
 20 34  1  0  0  0  0
 20 37  1  0  0  0  0
 21 30  1  0  0  0  0
 21 38  2  0  0  0  0
 22 31  1  0  0  0  0
 22 40  1  0  0  0  0
 23 41  1  0  0  0  0
 23 42  2  0  0  0  0
 24 43  2  0  0  0  0
 24 44  1  0  0  0  0
 25 26  1  0  0  0  0
 25 27  1  0  0  0  0
 26 39  1  0  0  0  0
 27 41  1  0  0  0  0
 32 40  1  0  0  0  0
 33 35  1  0  0  0  0
 34 41  1  0  0  0  0
 35 36  1  0  0  0  0
 36 45  1  0  0  0  0
 38 40  1  0  0  0  0
  1 48  1  0  0  0  0
  2 49  1  0  0  0  0
  3 50  1  0  0  0  0
  4 51  1  0  0  0  0
  5 52  1  0  0  0  0
  6 53  1  0  0  0  0
  7 54  1  0  0  0  0
 25 55  1  0  0  0  0
 25 56  1  0  0  0  0
 26 57  1  0  0  0  0
 26 58  1  0  0  0  0
 27 59  1  0  0  0  0
 27 60  1  0  0  0  0
 28 61  1  0  0  0  0
 28 62  1  0  0  0  0
 28 63  1  0  0  0  0
 29 64  1  0  0  0  0
 29 65  1  0  0  0  0
 29 66  1  0  0  0  0
 30 67  1  0  0  0  0
 30 68  1  0  0  0  0
 30 69  1  0  0  0  0
 31 70  1  0  0  0  0
 31 71  1  0  0  0  0
 31 72  1  0  0  0  0
 32 73  1  0  0  0  0
 32 74  1  0  0  0  0
 32 75  1  0  0  0  0
 33 76  1  0  0  0  0
 33 77  1  0  0  0  0
 34 78  1  0  0  0  0
 34 79  1  0  0  0  0
 35 80  1  0  0  0  0
 35 81  1  0  0  0  0
 36 82  1  0  0  0  0
 36 83  1  0  0  0  0
M  CHG  1  44  -1
M  END
> <Molecule Name>
cmp_21

> <mmff94s_NoEstat>
130.95

> <Ki_nM>
1.1

$$$$
cmp_22
  -OEChem-07021816373D

 84 89  0     0  0  0  0  0  0999 V2000
    1.6774    2.8678    0.0171 C   0  0  0  0  0  0  0  0  0  0  0  0
   -3.8775   -5.9197    0.1372 C   0  0  0  0  0  0  0  0  0  0  0  0
   -4.6465   -3.8770    1.1731 C   0  0  0  0  0  0  0  0  0  0  0  0
   -3.1951   -5.1750   -0.8247 C   0  0  0  0  0  0  0  0  0  0  0  0
   -3.9640   -3.1322    0.2112 C   0  0  0  0  0  0  0  0  0  0  0  0
    2.5044    2.9946    1.1371 C   0  0  0  0  0  0  0  0  0  0  0  0
    0.6843   -2.1577   -4.6747 C   0  0  0  0  0  0  0  0  0  0  0  0
   -1.6202   -1.8691   -5.3403 C   0  0  0  0  0  0  0  0  0  0  0  0
    0.8261    1.7495   -0.0918 C   0  0  0  0  0  0  0  0  0  0  0  0
    1.6528    0.9149    2.0550 C   0  0  0  0  0  0  0  0  0  0  0  0
    1.7107   -0.0992    3.0688 C   0  0  0  0  0  0  0  0  0  0  0  0
   -4.6033   -5.2706    1.1361 C   0  0  0  0  0  0  0  0  0  0  0  0
   -3.2383   -3.7813   -0.7878 C   0  0  0  0  0  0  0  0  0  0  0  0
    0.6425   -3.4838   -5.1050 C   0  0  0  0  0  0  0  0  0  0  0  0
   -1.6620   -3.1953   -5.7706 C   0  0  0  0  0  0  0  0  0  0  0  0
   -0.1123    1.3238   -1.0703 C   0  0  0  0  0  0  0  0  0  0  0  0
    0.8253    0.7925    0.9271 C   0  0  0  0  0  0  0  0  0  0  0  0
   -0.4471   -1.3503   -4.7923 C   0  0  0  0  0  0  0  0  0  0  0  0
    2.4912    2.0303    2.1399 C   0  0  0  0  0  0  0  0  0  0  0  0
   -0.5306   -4.0026   -5.6529 C   0  0  0  0  0  0  0  0  0  0  0  0
   -0.6434    0.1118   -0.6704 C   0  0  0  0  0  0  0  0  0  0  0  0
    0.9626   -0.2753    4.2483 C   0  0  0  0  0  0  0  0  0  0  0  0
    2.5857   -1.1578    3.0560 C   0  0  0  0  0  0  0  0  0  0  0  0
   -1.6228   -0.7027   -1.3783 C   0  0  0  0  0  0  0  0  0  0  0  0
   -5.3148   -6.0461    2.1399 C   0  0  0  0  0  0  0  0  0  0  0  0
   -0.1609   -2.6405    0.8079 C   0  0  0  0  0  0  0  0  0  0  0  0
   -0.5391   -1.2817    1.3897 C   0  0  0  0  0  0  0  0  0  0  0  0
   -0.2913   -2.7336   -0.7114 C   0  0  0  0  0  0  0  0  0  0  0  0
    1.8789   -4.3119   -4.9596 C   0  0  0  0  0  0  0  0  0  0  0  0
   -2.9405   -3.7086   -6.3514 C   0  0  0  0  0  0  0  0  0  0  0  0
   -0.1226    0.5757    4.7687 C   0  0  0  0  0  0  0  0  0  0  0  0
    3.6351   -1.5537    2.0954 C   0  0  0  0  0  0  0  0  0  0  0  0
    2.9781   -3.0848    4.6209 C   0  0  0  0  0  0  0  0  0  0  0  0
   -0.4266    2.0467   -2.3234 C   0  0  0  0  0  0  0  0  0  0  0  0
   -2.5027   -2.9802   -1.8227 C   0  0  0  0  0  0  0  0  0  0  0  0
    0.6610    1.8638   -3.3970 C   0  0  0  0  0  0  0  0  0  0  0  0
    0.8229    0.4111   -3.8225 C   0  0  0  0  0  0  0  0  0  0  0  0
    1.3302   -1.3604    4.9349 N   0  0  0  0  0  0  0  0  0  0  0  0
   -0.1002   -0.1654    0.5711 N   0  0  0  0  0  0  0  0  0  0  0  0
    2.3187   -1.8758    4.1845 N   0  0  0  0  0  0  0  0  0  0  0  0
   -1.5094   -2.1000   -1.2255 N   0  0  0  0  0  0  0  0  0  0  0  0
   -2.4952   -0.1812   -2.0743 O   0  0  0  0  0  0  0  0  0  0  0  0
   -5.3449   -7.2795    2.2031 O   0  0  0  0  0  0  0  0  0  0  0  0
   -5.9685   -5.2595    3.0383 O   0  5  0  0  0  0  0  0  0  0  0  0
   -0.4058   -0.0470   -4.3695 O   0  0  0  0  0  0  0  0  0  0  0  0
    3.5610    2.2712    3.4842 Cl  0  0  0  0  0  0  0  0  0  0  0  0
   -0.5824   -5.6491   -6.1869 Cl  0  0  0  0  0  0  0  0  0  0  0  0
    1.6983    3.6278   -0.7590 H   0  0  0  0  0  0  0  0  0  0  0  0
   -3.8374   -7.0052    0.0996 H   0  0  0  0  0  0  0  0  0  0  0  0
   -5.2088   -3.3605    1.9467 H   0  0  0  0  0  0  0  0  0  0  0  0
   -2.6320   -5.6889   -1.5992 H   0  0  0  0  0  0  0  0  0  0  0  0
   -4.0027   -2.0466    0.2478 H   0  0  0  0  0  0  0  0  0  0  0  0
    3.1578    3.8616    1.2052 H   0  0  0  0  0  0  0  0  0  0  0  0
    1.5966   -1.7492   -4.2470 H   0  0  0  0  0  0  0  0  0  0  0  0
   -2.4997   -1.2363   -5.4300 H   0  0  0  0  0  0  0  0  0  0  0  0
    0.8725   -2.8854    1.0816 H   0  0  0  0  0  0  0  0  0  0  0  0
   -0.7961   -3.4022    1.2766 H   0  0  0  0  0  0  0  0  0  0  0  0
   -1.6347   -1.2016    1.4303 H   0  0  0  0  0  0  0  0  0  0  0  0
   -0.2270   -1.1918    2.4258 H   0  0  0  0  0  0  0  0  0  0  0  0
    0.5688   -2.2501   -1.1913 H   0  0  0  0  0  0  0  0  0  0  0  0
   -0.2672   -3.7851   -1.0209 H   0  0  0  0  0  0  0  0  0  0  0  0
    1.8846   -4.8154   -3.9866 H   0  0  0  0  0  0  0  0  0  0  0  0
    1.9404   -5.0712   -5.7481 H   0  0  0  0  0  0  0  0  0  0  0  0
    2.7803   -3.6927   -5.0398 H   0  0  0  0  0  0  0  0  0  0  0  0
   -2.9567   -3.5444   -7.4345 H   0  0  0  0  0  0  0  0  0  0  0  0
   -3.0597   -4.7810   -6.1572 H   0  0  0  0  0  0  0  0  0  0  0  0
   -3.8066   -3.2041   -5.9068 H   0  0  0  0  0  0  0  0  0  0  0  0
   -1.1048    0.2466    4.3897 H   0  0  0  0  0  0  0  0  0  0  0  0
   -0.1693    0.5620    5.8718 H   0  0  0  0  0  0  0  0  0  0  0  0
    0.0068    1.6349    4.4842 H   0  0  0  0  0  0  0  0  0  0  0  0
    4.6041   -1.0983    2.3565 H   0  0  0  0  0  0  0  0  0  0  0  0
    3.7756   -2.6475    2.0646 H   0  0  0  0  0  0  0  0  0  0  0  0
    3.3877   -1.2487    1.0644 H   0  0  0  0  0  0  0  0  0  0  0  0
    3.8261   -2.7987    5.2486 H   0  0  0  0  0  0  0  0  0  0  0  0
    2.2733   -3.6997    5.1875 H   0  0  0  0  0  0  0  0  0  0  0  0
    3.3202   -3.6456    3.7466 H   0  0  0  0  0  0  0  0  0  0  0  0
   -0.5575    3.1301   -2.1360 H   0  0  0  0  0  0  0  0  0  0  0  0
   -1.3952    1.7128   -2.7432 H   0  0  0  0  0  0  0  0  0  0  0  0
   -1.9871   -3.6412   -2.5280 H   0  0  0  0  0  0  0  0  0  0  0  0
   -3.1934   -2.3601   -2.4037 H   0  0  0  0  0  0  0  0  0  0  0  0
    1.6227    2.2426   -3.0267 H   0  0  0  0  0  0  0  0  0  0  0  0
    0.4265    2.4760   -4.2779 H   0  0  0  0  0  0  0  0  0  0  0  0
    1.6017    0.3120   -4.5854 H   0  0  0  0  0  0  0  0  0  0  0  0
    1.0797   -0.2203   -2.9661 H   0  0  0  0  0  0  0  0  0  0  0  0
  1  6  2  0  0  0  0
  1  9  1  0  0  0  0
  2  4  1  0  0  0  0
  2 12  2  0  0  0  0
  3  5  2  0  0  0  0
  3 12  1  0  0  0  0
  4 13  2  0  0  0  0
  5 13  1  0  0  0  0
  6 19  1  0  0  0  0
  7 14  2  0  0  0  0
  7 18  1  0  0  0  0
  8 15  1  0  0  0  0
  8 18  2  0  0  0  0
  9 16  1  0  0  0  0
  9 17  2  0  0  0  0
 10 11  1  0  0  0  0
 10 17  1  0  0  0  0
 10 19  2  0  0  0  0
 11 22  1  0  0  0  0
 11 23  2  0  0  0  0
 12 25  1  0  0  0  0
 13 35  1  0  0  0  0
 14 20  1  0  0  0  0
 14 29  1  0  0  0  0
 15 20  2  0  0  0  0
 15 30  1  0  0  0  0
 16 21  2  0  0  0  0
 16 34  1  0  0  0  0
 17 39  1  0  0  0  0
 18 45  1  0  0  0  0
 19 46  1  0  0  0  0
 20 47  1  0  0  0  0
 21 24  1  0  0  0  0
 21 39  1  0  0  0  0
 22 31  1  0  0  0  0
 22 38  2  0  0  0  0
 23 32  1  0  0  0  0
 23 40  1  0  0  0  0
 24 41  1  0  0  0  0
 24 42  2  0  0  0  0
 25 43  2  0  0  0  0
 25 44  1  0  0  0  0
 26 27  1  0  0  0  0
 26 28  1  0  0  0  0
 27 39  1  0  0  0  0
 28 41  1  0  0  0  0
 33 40  1  0  0  0  0
 34 36  1  0  0  0  0
 35 41  1  0  0  0  0
 36 37  1  0  0  0  0
 37 45  1  0  0  0  0
 38 40  1  0  0  0  0
  1 48  1  0  0  0  0
  2 49  1  0  0  0  0
  3 50  1  0  0  0  0
  4 51  1  0  0  0  0
  5 52  1  0  0  0  0
  6 53  1  0  0  0  0
  7 54  1  0  0  0  0
  8 55  1  0  0  0  0
 26 56  1  0  0  0  0
 26 57  1  0  0  0  0
 27 58  1  0  0  0  0
 27 59  1  0  0  0  0
 28 60  1  0  0  0  0
 28 61  1  0  0  0  0
 29 62  1  0  0  0  0
 29 63  1  0  0  0  0
 29 64  1  0  0  0  0
 30 65  1  0  0  0  0
 30 66  1  0  0  0  0
 30 67  1  0  0  0  0
 31 68  1  0  0  0  0
 31 69  1  0  0  0  0
 31 70  1  0  0  0  0
 32 71  1  0  0  0  0
 32 72  1  0  0  0  0
 32 73  1  0  0  0  0
 33 74  1  0  0  0  0
 33 75  1  0  0  0  0
 33 76  1  0  0  0  0
 34 77  1  0  0  0  0
 34 78  1  0  0  0  0
 35 79  1  0  0  0  0
 35 80  1  0  0  0  0
 36 81  1  0  0  0  0
 36 82  1  0  0  0  0
 37 83  1  0  0  0  0
 37 84  1  0  0  0  0
M  CHG  1  44  -1
M  END
> <Molecule Name>
cmp_22

> <mmff94s_NoEstat>
131.79

> <Ki_nM>
3.3

$$$$
cmp_23
  -OEChem-07021816373D

 81 86  0     0  0  0  0  0  0999 V2000
   -1.3532   -5.8528    1.5169 C   0  0  0  0  0  0  0  0  0  0  0  0
    2.1071    2.5732    0.0217 C   0  0  0  0  0  0  0  0  0  0  0  0
   -2.6791   -6.1641    1.8179 C   0  0  0  0  0  0  0  0  0  0  0  0
   -0.9774   -4.5249    1.3135 C   0  0  0  0  0  0  0  0  0  0  0  0
    2.0409    3.3199   -1.1582 C   0  0  0  0  0  0  0  0  0  0  0  0
   -3.2536   -3.8197    1.7117 C   0  0  0  0  0  0  0  0  0  0  0  0
   -2.6626    0.2203    4.4881 C   0  0  0  0  0  0  0  0  0  0  0  0
   -1.6662   -1.7933    5.3768 C   0  0  0  0  0  0  0  0  0  0  0  0
    1.3376    1.3980    0.1414 C   0  0  0  0  0  0  0  0  0  0  0  0
    0.4564    1.7487   -2.1136 C   0  0  0  0  0  0  0  0  0  0  0  0
   -0.4248    1.3910   -3.1884 C   0  0  0  0  0  0  0  0  0  0  0  0
   -3.6293   -5.1476    1.9153 C   0  0  0  0  0  0  0  0  0  0  0  0
   -3.9271   -0.2479    4.8449 C   0  0  0  0  0  0  0  0  0  0  0  0
   -2.9308   -2.2615    5.7336 C   0  0  0  0  0  0  0  0  0  0  0  0
    1.1728    0.4365    1.1737 C   0  0  0  0  0  0  0  0  0  0  0  0
    0.5272    1.0022   -0.9261 C   0  0  0  0  0  0  0  0  0  0  0  0
   -1.9276   -3.5084    1.4108 C   0  0  0  0  0  0  0  0  0  0  0  0
   -1.5321   -0.5524    4.7540 C   0  0  0  0  0  0  0  0  0  0  0  0
    1.2256    2.9122   -2.2090 C   0  0  0  0  0  0  0  0  0  0  0  0
   -4.0612   -1.4888    5.4677 C   0  0  0  0  0  0  0  0  0  0  0  0
    0.2536   -0.5084    0.7546 C   0  0  0  0  0  0  0  0  0  0  0  0
   -0.2330    0.5578   -4.3068 C   0  0  0  0  0  0  0  0  0  0  0  0
   -1.7145    1.8458   -3.3161 C   0  0  0  0  0  0  0  0  0  0  0  0
   -0.2264   -1.6666    1.5086 C   0  0  0  0  0  0  0  0  0  0  0  0
   -5.0113   -5.4735    2.2291 C   0  0  0  0  0  0  0  0  0  0  0  0
   -2.3830   -1.0618   -0.8889 C   0  0  0  0  0  0  0  0  0  0  0  0
   -0.9391   -1.0016   -1.3824 C   0  0  0  0  0  0  0  0  0  0  0  0
   -2.5005   -1.1715    0.6311 C   0  0  0  0  0  0  0  0  0  0  0  0
   -5.1102    0.6141    4.5407 C   0  0  0  0  0  0  0  0  0  0  0  0
   -3.0268   -3.5970    6.3990 C   0  0  0  0  0  0  0  0  0  0  0  0
    0.9778   -0.1964   -4.6780 C   0  0  0  0  0  0  0  0  0  0  0  0
   -2.5252    2.7503   -2.4764 C   0  0  0  0  0  0  0  0  0  0  0  0
   -3.5163    1.4526   -5.0235 C   0  0  0  0  0  0  0  0  0  0  0  0
    1.8514    0.4749    2.4891 C   0  0  0  0  0  0  0  0  0  0  0  0
    1.2207    1.5014    3.4467 C   0  0  0  0  0  0  0  0  0  0  0  0
   -0.2311    1.1799    3.7731 C   0  0  0  0  0  0  0  0  0  0  0  0
   -1.3143    0.4856   -5.0874 N   0  0  0  0  0  0  0  0  0  0  0  0
   -0.0884   -0.1720   -0.5448 N   0  0  0  0  0  0  0  0  0  0  0  0
   -2.1981    1.2791   -4.4586 N   0  0  0  0  0  0  0  0  0  0  0  0
   -1.5370   -2.1295    1.1998 N   0  0  0  0  0  0  0  0  0  0  0  0
    0.4811   -2.1709    2.3813 O   0  0  0  0  0  0  0  0  0  0  0  0
   -5.4516   -6.6107    2.4277 O   0  0  0  0  0  0  0  0  0  0  0  0
   -5.8062   -4.3699    2.2877 O   0  5  0  0  0  0  0  0  0  0  0  0
   -0.2894   -0.0921    4.4033 O   0  0  0  0  0  0  0  0  0  0  0  0
    1.2033    3.9118   -3.6269 Cl  0  0  0  0  0  0  0  0  0  0  0  0
   -5.6312   -2.0701    5.9105 Cl  0  0  0  0  0  0  0  0  0  0  0  0
   -0.6131   -6.6441    1.4414 H   0  0  0  0  0  0  0  0  0  0  0  0
    2.7469    2.9044    0.8349 H   0  0  0  0  0  0  0  0  0  0  0  0
   -2.9603   -7.2023    1.9733 H   0  0  0  0  0  0  0  0  0  0  0  0
    0.0588   -4.2938    1.0789 H   0  0  0  0  0  0  0  0  0  0  0  0
    2.6384    4.2256   -1.2345 H   0  0  0  0  0  0  0  0  0  0  0  0
   -3.9950   -3.0268    1.7867 H   0  0  0  0  0  0  0  0  0  0  0  0
   -2.5534    1.1869    4.0025 H   0  0  0  0  0  0  0  0  0  0  0  0
   -0.7825   -2.3924    5.5821 H   0  0  0  0  0  0  0  0  0  0  0  0
   -2.9280   -0.1689   -1.2179 H   0  0  0  0  0  0  0  0  0  0  0  0
   -2.8733   -1.9223   -1.3602 H   0  0  0  0  0  0  0  0  0  0  0  0
   -0.4991   -2.0079   -1.3406 H   0  0  0  0  0  0  0  0  0  0  0  0
   -0.8906   -0.7322   -2.4325 H   0  0  0  0  0  0  0  0  0  0  0  0
   -2.3527   -0.1922    1.1037 H   0  0  0  0  0  0  0  0  0  0  0  0
   -3.5215   -1.4846    0.8845 H   0  0  0  0  0  0  0  0  0  0  0  0
   -5.5018    0.3810    3.5444 H   0  0  0  0  0  0  0  0  0  0  0  0
   -5.9089    0.4620    5.2762 H   0  0  0  0  0  0  0  0  0  0  0  0
   -4.8428    1.6770    4.5729 H   0  0  0  0  0  0  0  0  0  0  0  0
   -2.9588   -3.4834    7.4866 H   0  0  0  0  0  0  0  0  0  0  0  0
   -3.9747   -4.0917    6.1564 H   0  0  0  0  0  0  0  0  0  0  0  0
   -2.2227   -4.2633    6.0647 H   0  0  0  0  0  0  0  0  0  0  0  0
    0.9702   -1.2068   -4.2356 H   0  0  0  0  0  0  0  0  0  0  0  0
    1.0768   -0.3120   -5.7717 H   0  0  0  0  0  0  0  0  0  0  0  0
    1.9011    0.3078   -4.3421 H   0  0  0  0  0  0  0  0  0  0  0  0
   -2.4051    3.7991   -2.7927 H   0  0  0  0  0  0  0  0  0  0  0  0
   -3.5999    2.5062   -2.5244 H   0  0  0  0  0  0  0  0  0  0  0  0
   -2.2451    2.6867   -1.4111 H   0  0  0  0  0  0  0  0  0  0  0  0
   -3.4818    2.3074   -5.7041 H   0  0  0  0  0  0  0  0  0  0  0  0
   -3.8035    0.5457   -5.5629 H   0  0  0  0  0  0  0  0  0  0  0  0
   -4.2337    1.6326   -4.2180 H   0  0  0  0  0  0  0  0  0  0  0  0
    2.9265    0.7136    2.3754 H   0  0  0  0  0  0  0  0  0  0  0  0
    1.8317   -0.5193    2.9760 H   0  0  0  0  0  0  0  0  0  0  0  0
    1.2804    2.5079    3.0120 H   0  0  0  0  0  0  0  0  0  0  0  0
    1.7995    1.5517    4.3785 H   0  0  0  0  0  0  0  0  0  0  0  0
   -0.6526    1.9256    4.4548 H   0  0  0  0  0  0  0  0  0  0  0  0
   -0.8376    1.1455    2.8625 H   0  0  0  0  0  0  0  0  0  0  0  0
  1  3  1  0  0  0  0
  1  4  2  0  0  0  0
  2  5  2  0  0  0  0
  2  9  1  0  0  0  0
  3 12  2  0  0  0  0
  4 17  1  0  0  0  0
  5 19  1  0  0  0  0
  6 12  1  0  0  0  0
  6 17  2  0  0  0  0
  7 13  1  0  0  0  0
  7 18  2  0  0  0  0
  8 14  2  0  0  0  0
  8 18  1  0  0  0  0
  9 15  1  0  0  0  0
  9 16  2  0  0  0  0
 10 11  1  0  0  0  0
 10 16  1  0  0  0  0
 10 19  2  0  0  0  0
 11 22  1  0  0  0  0
 11 23  2  0  0  0  0
 12 25  1  0  0  0  0
 13 20  2  0  0  0  0
 13 29  1  0  0  0  0
 14 20  1  0  0  0  0
 14 30  1  0  0  0  0
 15 21  2  0  0  0  0
 15 34  1  0  0  0  0
 16 38  1  0  0  0  0
 17 40  1  0  0  0  0
 18 44  1  0  0  0  0
 19 45  1  0  0  0  0
 20 46  1  0  0  0  0
 21 24  1  0  0  0  0
 21 38  1  0  0  0  0
 22 31  1  0  0  0  0
 22 37  2  0  0  0  0
 23 32  1  0  0  0  0
 23 39  1  0  0  0  0
 24 40  1  0  0  0  0
 24 41  2  0  0  0  0
 25 42  2  0  0  0  0
 25 43  1  0  0  0  0
 26 27  1  0  0  0  0
 26 28  1  0  0  0  0
 27 38  1  0  0  0  0
 28 40  1  0  0  0  0
 33 39  1  0  0  0  0
 34 35  1  0  0  0  0
 35 36  1  0  0  0  0
 36 44  1  0  0  0  0
 37 39  1  0  0  0  0
  1 47  1  0  0  0  0
  2 48  1  0  0  0  0
  3 49  1  0  0  0  0
  4 50  1  0  0  0  0
  5 51  1  0  0  0  0
  6 52  1  0  0  0  0
  7 53  1  0  0  0  0
  8 54  1  0  0  0  0
 26 55  1  0  0  0  0
 26 56  1  0  0  0  0
 27 57  1  0  0  0  0
 27 58  1  0  0  0  0
 28 59  1  0  0  0  0
 28 60  1  0  0  0  0
 29 61  1  0  0  0  0
 29 62  1  0  0  0  0
 29 63  1  0  0  0  0
 30 64  1  0  0  0  0
 30 65  1  0  0  0  0
 30 66  1  0  0  0  0
 31 67  1  0  0  0  0
 31 68  1  0  0  0  0
 31 69  1  0  0  0  0
 32 70  1  0  0  0  0
 32 71  1  0  0  0  0
 32 72  1  0  0  0  0
 33 73  1  0  0  0  0
 33 74  1  0  0  0  0
 33 75  1  0  0  0  0
 34 76  1  0  0  0  0
 34 77  1  0  0  0  0
 35 78  1  0  0  0  0
 35 79  1  0  0  0  0
 36 80  1  0  0  0  0
 36 81  1  0  0  0  0
M  CHG  1  43  -1
M  END
> <Molecule Name>
cmp_23

> <mmff94s_NoEstat>
147.32

> <Ki_nM>
2.1

$$$$
cmp_24
  -OEChem-07021816373D

 80 85  0     0  0  0  0  0  0999 V2000
    2.1071    2.5732    0.0217 C   0  0  0  0  0  0  0  0  0  0  0  0
    2.0409    3.3199   -1.1582 C   0  0  0  0  0  0  0  0  0  0  0  0
   -3.2430   -3.8440    1.7115 C   0  0  0  0  0  0  0  0  0  0  0  0
   -2.6626    0.2203    4.4881 C   0  0  0  0  0  0  0  0  0  0  0  0
   -1.6662   -1.7933    5.3768 C   0  0  0  0  0  0  0  0  0  0  0  0
   -2.5859   -6.1282    1.7974 C   0  0  0  0  0  0  0  0  0  0  0  0
   -1.0010   -4.5347    1.3208 C   0  0  0  0  0  0  0  0  0  0  0  0
    1.3376    1.3980    0.1414 C   0  0  0  0  0  0  0  0  0  0  0  0
    0.4564    1.7487   -2.1136 C   0  0  0  0  0  0  0  0  0  0  0  0
   -0.4248    1.3910   -3.1884 C   0  0  0  0  0  0  0  0  0  0  0  0
   -3.5867   -5.1766    1.9100 C   0  0  0  0  0  0  0  0  0  0  0  0
   -3.9271   -0.2479    4.8449 C   0  0  0  0  0  0  0  0  0  0  0  0
   -2.9308   -2.2615    5.7336 C   0  0  0  0  0  0  0  0  0  0  0  0
    1.1728    0.4365    1.1737 C   0  0  0  0  0  0  0  0  0  0  0  0
    0.5272    1.0022   -0.9261 C   0  0  0  0  0  0  0  0  0  0  0  0
   -1.9276   -3.5084    1.4108 C   0  0  0  0  0  0  0  0  0  0  0  0
   -1.5321   -0.5524    4.7540 C   0  0  0  0  0  0  0  0  0  0  0  0
    1.2256    2.9122   -2.2090 C   0  0  0  0  0  0  0  0  0  0  0  0
   -4.0612   -1.4888    5.4677 C   0  0  0  0  0  0  0  0  0  0  0  0
    0.2536   -0.5084    0.7546 C   0  0  0  0  0  0  0  0  0  0  0  0
   -0.2330    0.5578   -4.3068 C   0  0  0  0  0  0  0  0  0  0  0  0
   -1.7145    1.8458   -3.3161 C   0  0  0  0  0  0  0  0  0  0  0  0
   -0.2264   -1.6666    1.5086 C   0  0  0  0  0  0  0  0  0  0  0  0
   -4.9517   -5.5591    2.2258 C   0  0  0  0  0  0  0  0  0  0  0  0
   -2.3830   -1.0618   -0.8889 C   0  0  0  0  0  0  0  0  0  0  0  0
   -0.9391   -1.0016   -1.3824 C   0  0  0  0  0  0  0  0  0  0  0  0
   -2.5005   -1.1715    0.6311 C   0  0  0  0  0  0  0  0  0  0  0  0
   -5.1102    0.6141    4.5407 C   0  0  0  0  0  0  0  0  0  0  0  0
   -3.0268   -3.5970    6.3990 C   0  0  0  0  0  0  0  0  0  0  0  0
    0.9778   -0.1964   -4.6780 C   0  0  0  0  0  0  0  0  0  0  0  0
   -2.5252    2.7503   -2.4764 C   0  0  0  0  0  0  0  0  0  0  0  0
   -3.5163    1.4526   -5.0235 C   0  0  0  0  0  0  0  0  0  0  0  0
    1.8514    0.4749    2.4891 C   0  0  0  0  0  0  0  0  0  0  0  0
    1.2207    1.5014    3.4467 C   0  0  0  0  0  0  0  0  0  0  0  0
   -0.2311    1.1799    3.7731 C   0  0  0  0  0  0  0  0  0  0  0  0
   -1.2973   -5.8405    1.5069 N   0  0  0  0  0  0  0  0  0  0  0  0
   -1.3143    0.4856   -5.0874 N   0  0  0  0  0  0  0  0  0  0  0  0
   -0.0884   -0.1720   -0.5448 N   0  0  0  0  0  0  0  0  0  0  0  0
   -2.1981    1.2791   -4.4586 N   0  0  0  0  0  0  0  0  0  0  0  0
   -1.5370   -2.1295    1.1998 N   0  0  0  0  0  0  0  0  0  0  0  0
    0.4811   -2.1709    2.3813 O   0  0  0  0  0  0  0  0  0  0  0  0
   -5.3473   -6.7148    2.4178 O   0  0  0  0  0  0  0  0  0  0  0  0
   -5.7913   -4.4890    2.2958 O   0  5  0  0  0  0  0  0  0  0  0  0
   -0.2894   -0.0921    4.4033 O   0  0  0  0  0  0  0  0  0  0  0  0
    1.2033    3.9118   -3.6269 Cl  0  0  0  0  0  0  0  0  0  0  0  0
   -5.6312   -2.0701    5.9105 Cl  0  0  0  0  0  0  0  0  0  0  0  0
    2.7469    2.9044    0.8349 H   0  0  0  0  0  0  0  0  0  0  0  0
    2.6384    4.2256   -1.2345 H   0  0  0  0  0  0  0  0  0  0  0  0
   -4.0001   -3.0673    1.7923 H   0  0  0  0  0  0  0  0  0  0  0  0
   -2.5534    1.1869    4.0025 H   0  0  0  0  0  0  0  0  0  0  0  0
   -0.7825   -2.3924    5.5821 H   0  0  0  0  0  0  0  0  0  0  0  0
   -2.7932   -7.1844    1.9417 H   0  0  0  0  0  0  0  0  0  0  0  0
    0.0414   -4.3350    1.0899 H   0  0  0  0  0  0  0  0  0  0  0  0
   -2.9280   -0.1689   -1.2179 H   0  0  0  0  0  0  0  0  0  0  0  0
   -2.8733   -1.9223   -1.3602 H   0  0  0  0  0  0  0  0  0  0  0  0
   -0.4991   -2.0079   -1.3406 H   0  0  0  0  0  0  0  0  0  0  0  0
   -0.8906   -0.7322   -2.4325 H   0  0  0  0  0  0  0  0  0  0  0  0
   -2.3527   -0.1922    1.1037 H   0  0  0  0  0  0  0  0  0  0  0  0
   -3.5215   -1.4846    0.8845 H   0  0  0  0  0  0  0  0  0  0  0  0
   -5.5018    0.3810    3.5444 H   0  0  0  0  0  0  0  0  0  0  0  0
   -5.9089    0.4620    5.2762 H   0  0  0  0  0  0  0  0  0  0  0  0
   -4.8428    1.6770    4.5729 H   0  0  0  0  0  0  0  0  0  0  0  0
   -2.9588   -3.4834    7.4866 H   0  0  0  0  0  0  0  0  0  0  0  0
   -3.9747   -4.0917    6.1564 H   0  0  0  0  0  0  0  0  0  0  0  0
   -2.2227   -4.2633    6.0647 H   0  0  0  0  0  0  0  0  0  0  0  0
    0.9702   -1.2068   -4.2356 H   0  0  0  0  0  0  0  0  0  0  0  0
    1.0768   -0.3120   -5.7717 H   0  0  0  0  0  0  0  0  0  0  0  0
    1.9011    0.3078   -4.3421 H   0  0  0  0  0  0  0  0  0  0  0  0
   -2.4051    3.7991   -2.7927 H   0  0  0  0  0  0  0  0  0  0  0  0
   -3.5999    2.5062   -2.5244 H   0  0  0  0  0  0  0  0  0  0  0  0
   -2.2451    2.6867   -1.4111 H   0  0  0  0  0  0  0  0  0  0  0  0
   -3.4818    2.3074   -5.7041 H   0  0  0  0  0  0  0  0  0  0  0  0
   -3.8035    0.5457   -5.5629 H   0  0  0  0  0  0  0  0  0  0  0  0
   -4.2337    1.6326   -4.2180 H   0  0  0  0  0  0  0  0  0  0  0  0
    2.9265    0.7136    2.3754 H   0  0  0  0  0  0  0  0  0  0  0  0
    1.8317   -0.5193    2.9760 H   0  0  0  0  0  0  0  0  0  0  0  0
    1.2804    2.5079    3.0120 H   0  0  0  0  0  0  0  0  0  0  0  0
    1.7995    1.5517    4.3785 H   0  0  0  0  0  0  0  0  0  0  0  0
   -0.6526    1.9256    4.4548 H   0  0  0  0  0  0  0  0  0  0  0  0
   -0.8376    1.1455    2.8625 H   0  0  0  0  0  0  0  0  0  0  0  0
  1  2  2  0  0  0  0
  1  8  1  0  0  0  0
  2 18  1  0  0  0  0
  3 11  1  0  0  0  0
  3 16  2  0  0  0  0
  4 12  2  0  0  0  0
  4 17  1  0  0  0  0
  5 13  1  0  0  0  0
  5 17  2  0  0  0  0
  6 11  2  0  0  0  0
  6 36  1  0  0  0  0
  7 16  1  0  0  0  0
  7 36  2  0  0  0  0
  8 14  1  0  0  0  0
  8 15  2  0  0  0  0
  9 10  1  0  0  0  0
  9 15  1  0  0  0  0
  9 18  2  0  0  0  0
 10 21  1  0  0  0  0
 10 22  2  0  0  0  0
 11 24  1  0  0  0  0
 12 19  1  0  0  0  0
 12 28  1  0  0  0  0
 13 19  2  0  0  0  0
 13 29  1  0  0  0  0
 14 20  2  0  0  0  0
 14 33  1  0  0  0  0
 15 38  1  0  0  0  0
 16 40  1  0  0  0  0
 17 44  1  0  0  0  0
 18 45  1  0  0  0  0
 19 46  1  0  0  0  0
 20 23  1  0  0  0  0
 20 38  1  0  0  0  0
 21 30  1  0  0  0  0
 21 37  2  0  0  0  0
 22 31  1  0  0  0  0
 22 39  1  0  0  0  0
 23 40  1  0  0  0  0
 23 41  2  0  0  0  0
 24 42  2  0  0  0  0
 24 43  1  0  0  0  0
 25 26  1  0  0  0  0
 25 27  1  0  0  0  0
 26 38  1  0  0  0  0
 27 40  1  0  0  0  0
 32 39  1  0  0  0  0
 33 34  1  0  0  0  0
 34 35  1  0  0  0  0
 35 44  1  0  0  0  0
 37 39  1  0  0  0  0
  1 47  1  0  0  0  0
  2 48  1  0  0  0  0
  3 49  1  0  0  0  0
  4 50  1  0  0  0  0
  5 51  1  0  0  0  0
  6 52  1  0  0  0  0
  7 53  1  0  0  0  0
 25 54  1  0  0  0  0
 25 55  1  0  0  0  0
 26 56  1  0  0  0  0
 26 57  1  0  0  0  0
 27 58  1  0  0  0  0
 27 59  1  0  0  0  0
 28 60  1  0  0  0  0
 28 61  1  0  0  0  0
 28 62  1  0  0  0  0
 29 63  1  0  0  0  0
 29 64  1  0  0  0  0
 29 65  1  0  0  0  0
 30 66  1  0  0  0  0
 30 67  1  0  0  0  0
 30 68  1  0  0  0  0
 31 69  1  0  0  0  0
 31 70  1  0  0  0  0
 31 71  1  0  0  0  0
 32 72  1  0  0  0  0
 32 73  1  0  0  0  0
 32 74  1  0  0  0  0
 33 75  1  0  0  0  0
 33 76  1  0  0  0  0
 34 77  1  0  0  0  0
 34 78  1  0  0  0  0
 35 79  1  0  0  0  0
 35 80  1  0  0  0  0
M  CHG  1  43  -1
M  END
> <Molecule Name>
cmp_24

> <mmff94s_NoEstat>
146.80

> <Ki_nM>
1.0

$$$$
cmp_25
  -OEChem-07021816373D

 80 85  0     0  0  0  0  0  0999 V2000
    2.1071    2.5732    0.0217 C   0  0  0  0  0  0  0  0  0  0  0  0
    2.0409    3.3199   -1.1582 C   0  0  0  0  0  0  0  0  0  0  0  0
   -2.6286   -6.1162    1.8021 C   0  0  0  0  0  0  0  0  0  0  0  0
   -0.9420   -4.4762    1.3016 C   0  0  0  0  0  0  0  0  0  0  0  0
   -2.6626    0.2203    4.4881 C   0  0  0  0  0  0  0  0  0  0  0  0
   -1.6662   -1.7933    5.3768 C   0  0  0  0  0  0  0  0  0  0  0  0
   -3.5386   -5.0750    1.8891 C   0  0  0  0  0  0  0  0  0  0  0  0
    1.3376    1.3980    0.1414 C   0  0  0  0  0  0  0  0  0  0  0  0
    0.4564    1.7487   -2.1136 C   0  0  0  0  0  0  0  0  0  0  0  0
   -0.4248    1.3910   -3.1884 C   0  0  0  0  0  0  0  0  0  0  0  0
   -1.3076   -5.8027    1.5023 C   0  0  0  0  0  0  0  0  0  0  0  0
   -3.9271   -0.2479    4.8449 C   0  0  0  0  0  0  0  0  0  0  0  0
   -2.9308   -2.2615    5.7336 C   0  0  0  0  0  0  0  0  0  0  0  0
    1.1728    0.4365    1.1737 C   0  0  0  0  0  0  0  0  0  0  0  0
    0.5272    1.0022   -0.9261 C   0  0  0  0  0  0  0  0  0  0  0  0
   -1.5321   -0.5524    4.7540 C   0  0  0  0  0  0  0  0  0  0  0  0
    1.2256    2.9122   -2.2090 C   0  0  0  0  0  0  0  0  0  0  0  0
   -4.0612   -1.4888    5.4677 C   0  0  0  0  0  0  0  0  0  0  0  0
    0.2536   -0.5084    0.7546 C   0  0  0  0  0  0  0  0  0  0  0  0
   -0.2330    0.5578   -4.3068 C   0  0  0  0  0  0  0  0  0  0  0  0
   -1.7145    1.8458   -3.3161 C   0  0  0  0  0  0  0  0  0  0  0  0
   -1.9276   -3.5084    1.4108 C   0  0  0  0  0  0  0  0  0  0  0  0
   -0.2264   -1.6666    1.5086 C   0  0  0  0  0  0  0  0  0  0  0  0
   -0.3128   -6.8582    1.3994 C   0  0  0  0  0  0  0  0  0  0  0  0
   -2.3830   -1.0618   -0.8889 C   0  0  0  0  0  0  0  0  0  0  0  0
   -0.9391   -1.0016   -1.3824 C   0  0  0  0  0  0  0  0  0  0  0  0
   -2.5005   -1.1715    0.6311 C   0  0  0  0  0  0  0  0  0  0  0  0
   -5.1102    0.6141    4.5407 C   0  0  0  0  0  0  0  0  0  0  0  0
   -3.0268   -3.5970    6.3990 C   0  0  0  0  0  0  0  0  0  0  0  0
    0.9778   -0.1964   -4.6780 C   0  0  0  0  0  0  0  0  0  0  0  0
   -2.5252    2.7503   -2.4764 C   0  0  0  0  0  0  0  0  0  0  0  0
   -3.5163    1.4526   -5.0235 C   0  0  0  0  0  0  0  0  0  0  0  0
    1.8514    0.4749    2.4891 C   0  0  0  0  0  0  0  0  0  0  0  0
    1.2207    1.5014    3.4467 C   0  0  0  0  0  0  0  0  0  0  0  0
   -0.2311    1.1799    3.7731 C   0  0  0  0  0  0  0  0  0  0  0  0
   -3.2210   -3.7745    1.7005 N   0  0  0  0  0  0  0  0  0  0  0  0
   -1.3143    0.4856   -5.0874 N   0  0  0  0  0  0  0  0  0  0  0  0
   -0.0884   -0.1720   -0.5448 N   0  0  0  0  0  0  0  0  0  0  0  0
   -2.1981    1.2791   -4.4586 N   0  0  0  0  0  0  0  0  0  0  0  0
   -1.5370   -2.1295    1.1998 N   0  0  0  0  0  0  0  0  0  0  0  0
    0.4811   -2.1709    2.3813 O   0  0  0  0  0  0  0  0  0  0  0  0
    0.8835   -6.6921    1.1392 O   0  0  0  0  0  0  0  0  0  0  0  0
   -0.8388   -8.0933    1.6256 O   0  5  0  0  0  0  0  0  0  0  0  0
   -0.2894   -0.0921    4.4033 O   0  0  0  0  0  0  0  0  0  0  0  0
    1.2033    3.9118   -3.6269 Cl  0  0  0  0  0  0  0  0  0  0  0  0
   -5.6312   -2.0701    5.9105 Cl  0  0  0  0  0  0  0  0  0  0  0  0
    2.7469    2.9044    0.8349 H   0  0  0  0  0  0  0  0  0  0  0  0
    2.6384    4.2256   -1.2345 H   0  0  0  0  0  0  0  0  0  0  0  0
   -2.9471   -7.1404    1.9645 H   0  0  0  0  0  0  0  0  0  0  0  0
    0.0848   -4.2116    1.0666 H   0  0  0  0  0  0  0  0  0  0  0  0
   -2.5534    1.1869    4.0025 H   0  0  0  0  0  0  0  0  0  0  0  0
   -0.7825   -2.3924    5.5821 H   0  0  0  0  0  0  0  0  0  0  0  0
   -4.5812   -5.2665    2.1204 H   0  0  0  0  0  0  0  0  0  0  0  0
   -2.9280   -0.1689   -1.2179 H   0  0  0  0  0  0  0  0  0  0  0  0
   -2.8733   -1.9223   -1.3602 H   0  0  0  0  0  0  0  0  0  0  0  0
   -0.4991   -2.0079   -1.3406 H   0  0  0  0  0  0  0  0  0  0  0  0
   -0.8906   -0.7322   -2.4325 H   0  0  0  0  0  0  0  0  0  0  0  0
   -2.3527   -0.1922    1.1037 H   0  0  0  0  0  0  0  0  0  0  0  0
   -3.5215   -1.4846    0.8845 H   0  0  0  0  0  0  0  0  0  0  0  0
   -5.5018    0.3810    3.5444 H   0  0  0  0  0  0  0  0  0  0  0  0
   -5.9089    0.4620    5.2762 H   0  0  0  0  0  0  0  0  0  0  0  0
   -4.8428    1.6770    4.5729 H   0  0  0  0  0  0  0  0  0  0  0  0
   -2.9588   -3.4834    7.4866 H   0  0  0  0  0  0  0  0  0  0  0  0
   -3.9747   -4.0917    6.1564 H   0  0  0  0  0  0  0  0  0  0  0  0
   -2.2227   -4.2633    6.0647 H   0  0  0  0  0  0  0  0  0  0  0  0
    0.9702   -1.2068   -4.2356 H   0  0  0  0  0  0  0  0  0  0  0  0
    1.0768   -0.3120   -5.7717 H   0  0  0  0  0  0  0  0  0  0  0  0
    1.9011    0.3078   -4.3421 H   0  0  0  0  0  0  0  0  0  0  0  0
   -2.4051    3.7991   -2.7927 H   0  0  0  0  0  0  0  0  0  0  0  0
   -3.5999    2.5062   -2.5244 H   0  0  0  0  0  0  0  0  0  0  0  0
   -2.2451    2.6867   -1.4111 H   0  0  0  0  0  0  0  0  0  0  0  0
   -3.4818    2.3074   -5.7041 H   0  0  0  0  0  0  0  0  0  0  0  0
   -3.8035    0.5457   -5.5629 H   0  0  0  0  0  0  0  0  0  0  0  0
   -4.2337    1.6326   -4.2180 H   0  0  0  0  0  0  0  0  0  0  0  0
    2.9265    0.7136    2.3754 H   0  0  0  0  0  0  0  0  0  0  0  0
    1.8317   -0.5193    2.9760 H   0  0  0  0  0  0  0  0  0  0  0  0
    1.2804    2.5079    3.0120 H   0  0  0  0  0  0  0  0  0  0  0  0
    1.7995    1.5517    4.3785 H   0  0  0  0  0  0  0  0  0  0  0  0
   -0.6526    1.9256    4.4548 H   0  0  0  0  0  0  0  0  0  0  0  0
   -0.8377    1.1455    2.8625 H   0  0  0  0  0  0  0  0  0  0  0  0
  1  2  2  0  0  0  0
  1  8  1  0  0  0  0
  2 17  1  0  0  0  0
  3  7  1  0  0  0  0
  3 11  2  0  0  0  0
  4 11  1  0  0  0  0
  4 22  2  0  0  0  0
  5 12  2  0  0  0  0
  5 16  1  0  0  0  0
  6 13  1  0  0  0  0
  6 16  2  0  0  0  0
  7 36  2  0  0  0  0
  8 14  1  0  0  0  0
  8 15  2  0  0  0  0
  9 10  1  0  0  0  0
  9 15  1  0  0  0  0
  9 17  2  0  0  0  0
 10 20  1  0  0  0  0
 10 21  2  0  0  0  0
 11 24  1  0  0  0  0
 12 18  1  0  0  0  0
 12 28  1  0  0  0  0
 13 18  2  0  0  0  0
 13 29  1  0  0  0  0
 14 19  2  0  0  0  0
 14 33  1  0  0  0  0
 15 38  1  0  0  0  0
 16 44  1  0  0  0  0
 17 45  1  0  0  0  0
 18 46  1  0  0  0  0
 19 23  1  0  0  0  0
 19 38  1  0  0  0  0
 20 30  1  0  0  0  0
 20 37  2  0  0  0  0
 21 31  1  0  0  0  0
 21 39  1  0  0  0  0
 22 36  1  0  0  0  0
 22 40  1  0  0  0  0
 23 40  1  0  0  0  0
 23 41  2  0  0  0  0
 24 42  2  0  0  0  0
 24 43  1  0  0  0  0
 25 26  1  0  0  0  0
 25 27  1  0  0  0  0
 26 38  1  0  0  0  0
 27 40  1  0  0  0  0
 32 39  1  0  0  0  0
 33 34  1  0  0  0  0
 34 35  1  0  0  0  0
 35 44  1  0  0  0  0
 37 39  1  0  0  0  0
  1 47  1  0  0  0  0
  2 48  1  0  0  0  0
  3 49  1  0  0  0  0
  4 50  1  0  0  0  0
  5 51  1  0  0  0  0
  6 52  1  0  0  0  0
  7 53  1  0  0  0  0
 25 54  1  0  0  0  0
 25 55  1  0  0  0  0
 26 56  1  0  0  0  0
 26 57  1  0  0  0  0
 27 58  1  0  0  0  0
 27 59  1  0  0  0  0
 28 60  1  0  0  0  0
 28 61  1  0  0  0  0
 28 62  1  0  0  0  0
 29 63  1  0  0  0  0
 29 64  1  0  0  0  0
 29 65  1  0  0  0  0
 30 66  1  0  0  0  0
 30 67  1  0  0  0  0
 30 68  1  0  0  0  0
 31 69  1  0  0  0  0
 31 70  1  0  0  0  0
 31 71  1  0  0  0  0
 32 72  1  0  0  0  0
 32 73  1  0  0  0  0
 32 74  1  0  0  0  0
 33 75  1  0  0  0  0
 33 76  1  0  0  0  0
 34 77  1  0  0  0  0
 34 78  1  0  0  0  0
 35 79  1  0  0  0  0
 35 80  1  0  0  0  0
M  CHG  1  43  -1
M  END
> <Molecule Name>
cmp_25

> <mmff94s_NoEstat>
144.23

> <Ki_nM>
1.0

$$$$
cmp_26
  -OEChem-07021816373D

 81 86  0     0  0  0  0  0  0999 V2000
    2.1071    2.5732    0.0217 C   0  0  0  0  0  0  0  0  0  0  0  0
   -1.3517   -5.8524    1.5165 C   0  0  0  0  0  0  0  0  0  0  0  0
   -3.6284   -5.1487    1.9148 C   0  0  0  0  0  0  0  0  0  0  0  0
   -0.9767   -4.5243    1.3133 C   0  0  0  0  0  0  0  0  0  0  0  0
   -3.2534   -3.8206    1.7116 C   0  0  0  0  0  0  0  0  0  0  0  0
    2.0409    3.3199   -1.1582 C   0  0  0  0  0  0  0  0  0  0  0  0
   -2.6626    0.2203    4.4881 C   0  0  0  0  0  0  0  0  0  0  0  0
   -1.6662   -1.7933    5.3768 C   0  0  0  0  0  0  0  0  0  0  0  0
    1.3376    1.3980    0.1414 C   0  0  0  0  0  0  0  0  0  0  0  0
    0.4564    1.7487   -2.1136 C   0  0  0  0  0  0  0  0  0  0  0  0
   -0.4248    1.3910   -3.1884 C   0  0  0  0  0  0  0  0  0  0  0  0
   -2.6776   -6.1646    1.8172 C   0  0  0  0  0  0  0  0  0  0  0  0
   -3.9271   -0.2479    4.8449 C   0  0  0  0  0  0  0  0  0  0  0  0
   -2.9308   -2.2615    5.7336 C   0  0  0  0  0  0  0  0  0  0  0  0
    1.1728    0.4365    1.1737 C   0  0  0  0  0  0  0  0  0  0  0  0
    0.5272    1.0022   -0.9261 C   0  0  0  0  0  0  0  0  0  0  0  0
   -1.9276   -3.5084    1.4108 C   0  0  0  0  0  0  0  0  0  0  0  0
   -1.5321   -0.5524    4.7540 C   0  0  0  0  0  0  0  0  0  0  0  0
    1.2256    2.9122   -2.2090 C   0  0  0  0  0  0  0  0  0  0  0  0
   -4.0612   -1.4888    5.4677 C   0  0  0  0  0  0  0  0  0  0  0  0
    0.2536   -0.5084    0.7546 C   0  0  0  0  0  0  0  0  0  0  0  0
   -0.2330    0.5578   -4.3068 C   0  0  0  0  0  0  0  0  0  0  0  0
   -1.7145    1.8458   -3.3161 C   0  0  0  0  0  0  0  0  0  0  0  0
   -0.2264   -1.6666    1.5086 C   0  0  0  0  0  0  0  0  0  0  0  0
   -3.0686   -7.5492    2.0289 C   0  0  0  0  0  0  0  0  0  0  0  0
   -2.3830   -1.0618   -0.8889 C   0  0  0  0  0  0  0  0  0  0  0  0
   -0.9391   -1.0016   -1.3824 C   0  0  0  0  0  0  0  0  0  0  0  0
   -2.5005   -1.1715    0.6311 C   0  0  0  0  0  0  0  0  0  0  0  0
   -5.1102    0.6141    4.5407 C   0  0  0  0  0  0  0  0  0  0  0  0
   -3.0268   -3.5970    6.3990 C   0  0  0  0  0  0  0  0  0  0  0  0
    0.9778   -0.1964   -4.6780 C   0  0  0  0  0  0  0  0  0  0  0  0
   -2.5252    2.7503   -2.4764 C   0  0  0  0  0  0  0  0  0  0  0  0
   -3.5163    1.4526   -5.0235 C   0  0  0  0  0  0  0  0  0  0  0  0
    1.8514    0.4749    2.4891 C   0  0  0  0  0  0  0  0  0  0  0  0
    1.2207    1.5014    3.4467 C   0  0  0  0  0  0  0  0  0  0  0  0
   -0.2311    1.1799    3.7731 C   0  0  0  0  0  0  0  0  0  0  0  0
   -1.3143    0.4856   -5.0874 N   0  0  0  0  0  0  0  0  0  0  0  0
   -0.0884   -0.1720   -0.5448 N   0  0  0  0  0  0  0  0  0  0  0  0
   -2.1981    1.2791   -4.4586 N   0  0  0  0  0  0  0  0  0  0  0  0
   -1.5370   -2.1295    1.1998 N   0  0  0  0  0  0  0  0  0  0  0  0
    0.4811   -2.1709    2.3813 O   0  0  0  0  0  0  0  0  0  0  0  0
   -2.3125   -8.5243    1.9672 O   0  0  0  0  0  0  0  0  0  0  0  0
   -4.3936   -7.6783    2.3133 O   0  5  0  0  0  0  0  0  0  0  0  0
   -0.2894   -0.0921    4.4033 O   0  0  0  0  0  0  0  0  0  0  0  0
    1.2033    3.9118   -3.6269 Cl  0  0  0  0  0  0  0  0  0  0  0  0
   -5.6312   -2.0701    5.9105 Cl  0  0  0  0  0  0  0  0  0  0  0  0
    2.7469    2.9044    0.8349 H   0  0  0  0  0  0  0  0  0  0  0  0
   -0.6029   -6.6362    1.4376 H   0  0  0  0  0  0  0  0  0  0  0  0
   -4.6643   -5.3807    2.1485 H   0  0  0  0  0  0  0  0  0  0  0  0
    0.0593   -4.2917    1.0798 H   0  0  0  0  0  0  0  0  0  0  0  0
   -4.0031   -3.0371    1.7901 H   0  0  0  0  0  0  0  0  0  0  0  0
    2.6384    4.2256   -1.2345 H   0  0  0  0  0  0  0  0  0  0  0  0
   -2.5534    1.1869    4.0025 H   0  0  0  0  0  0  0  0  0  0  0  0
   -0.7825   -2.3924    5.5821 H   0  0  0  0  0  0  0  0  0  0  0  0
   -2.9280   -0.1689   -1.2179 H   0  0  0  0  0  0  0  0  0  0  0  0
   -2.8733   -1.9223   -1.3602 H   0  0  0  0  0  0  0  0  0  0  0  0
   -0.4991   -2.0079   -1.3406 H   0  0  0  0  0  0  0  0  0  0  0  0
   -0.8906   -0.7322   -2.4325 H   0  0  0  0  0  0  0  0  0  0  0  0
   -2.3527   -0.1922    1.1037 H   0  0  0  0  0  0  0  0  0  0  0  0
   -3.5215   -1.4846    0.8845 H   0  0  0  0  0  0  0  0  0  0  0  0
   -5.5018    0.3810    3.5444 H   0  0  0  0  0  0  0  0  0  0  0  0
   -5.9089    0.4620    5.2762 H   0  0  0  0  0  0  0  0  0  0  0  0
   -4.8428    1.6770    4.5729 H   0  0  0  0  0  0  0  0  0  0  0  0
   -2.9588   -3.4834    7.4866 H   0  0  0  0  0  0  0  0  0  0  0  0
   -3.9747   -4.0917    6.1564 H   0  0  0  0  0  0  0  0  0  0  0  0
   -2.2227   -4.2633    6.0647 H   0  0  0  0  0  0  0  0  0  0  0  0
    0.9702   -1.2068   -4.2356 H   0  0  0  0  0  0  0  0  0  0  0  0
    1.0768   -0.3120   -5.7717 H   0  0  0  0  0  0  0  0  0  0  0  0
    1.9011    0.3078   -4.3421 H   0  0  0  0  0  0  0  0  0  0  0  0
   -2.4051    3.7991   -2.7927 H   0  0  0  0  0  0  0  0  0  0  0  0
   -3.5999    2.5062   -2.5244 H   0  0  0  0  0  0  0  0  0  0  0  0
   -2.2451    2.6867   -1.4111 H   0  0  0  0  0  0  0  0  0  0  0  0
   -3.4818    2.3074   -5.7041 H   0  0  0  0  0  0  0  0  0  0  0  0
   -3.8035    0.5457   -5.5629 H   0  0  0  0  0  0  0  0  0  0  0  0
   -4.2337    1.6326   -4.2180 H   0  0  0  0  0  0  0  0  0  0  0  0
    2.9265    0.7136    2.3754 H   0  0  0  0  0  0  0  0  0  0  0  0
    1.8317   -0.5193    2.9760 H   0  0  0  0  0  0  0  0  0  0  0  0
    1.2804    2.5079    3.0120 H   0  0  0  0  0  0  0  0  0  0  0  0
    1.7995    1.5517    4.3785 H   0  0  0  0  0  0  0  0  0  0  0  0
   -0.6526    1.9256    4.4548 H   0  0  0  0  0  0  0  0  0  0  0  0
   -0.8376    1.1455    2.8625 H   0  0  0  0  0  0  0  0  0  0  0  0
  1  6  2  0  0  0  0
  1  9  1  0  0  0  0
  2  4  1  0  0  0  0
  2 12  2  0  0  0  0
  3  5  2  0  0  0  0
  3 12  1  0  0  0  0
  4 17  2  0  0  0  0
  5 17  1  0  0  0  0
  6 19  1  0  0  0  0
  7 13  2  0  0  0  0
  7 18  1  0  0  0  0
  8 14  1  0  0  0  0
  8 18  2  0  0  0  0
  9 15  1  0  0  0  0
  9 16  2  0  0  0  0
 10 11  1  0  0  0  0
 10 16  1  0  0  0  0
 10 19  2  0  0  0  0
 11 22  1  0  0  0  0
 11 23  2  0  0  0  0
 12 25  1  0  0  0  0
 13 20  1  0  0  0  0
 13 29  1  0  0  0  0
 14 20  2  0  0  0  0
 14 30  1  0  0  0  0
 15 21  2  0  0  0  0
 15 34  1  0  0  0  0
 16 38  1  0  0  0  0
 17 40  1  0  0  0  0
 18 44  1  0  0  0  0
 19 45  1  0  0  0  0
 20 46  1  0  0  0  0
 21 24  1  0  0  0  0
 21 38  1  0  0  0  0
 22 31  1  0  0  0  0
 22 37  2  0  0  0  0
 23 32  1  0  0  0  0
 23 39  1  0  0  0  0
 24 40  1  0  0  0  0
 24 41  2  0  0  0  0
 25 42  2  0  0  0  0
 25 43  1  0  0  0  0
 26 27  1  0  0  0  0
 26 28  1  0  0  0  0
 27 38  1  0  0  0  0
 28 40  1  0  0  0  0
 33 39  1  0  0  0  0
 34 35  1  0  0  0  0
 35 36  1  0  0  0  0
 36 44  1  0  0  0  0
 37 39  1  0  0  0  0
  1 47  1  0  0  0  0
  2 48  1  0  0  0  0
  3 49  1  0  0  0  0
  4 50  1  0  0  0  0
  5 51  1  0  0  0  0
  6 52  1  0  0  0  0
  7 53  1  0  0  0  0
  8 54  1  0  0  0  0
 26 55  1  0  0  0  0
 26 56  1  0  0  0  0
 27 57  1  0  0  0  0
 27 58  1  0  0  0  0
 28 59  1  0  0  0  0
 28 60  1  0  0  0  0
 29 61  1  0  0  0  0
 29 62  1  0  0  0  0
 29 63  1  0  0  0  0
 30 64  1  0  0  0  0
 30 65  1  0  0  0  0
 30 66  1  0  0  0  0
 31 67  1  0  0  0  0
 31 68  1  0  0  0  0
 31 69  1  0  0  0  0
 32 70  1  0  0  0  0
 32 71  1  0  0  0  0
 32 72  1  0  0  0  0
 33 73  1  0  0  0  0
 33 74  1  0  0  0  0
 33 75  1  0  0  0  0
 34 76  1  0  0  0  0
 34 77  1  0  0  0  0
 35 78  1  0  0  0  0
 35 79  1  0  0  0  0
 36 80  1  0  0  0  0
 36 81  1  0  0  0  0
M  CHG  1  43  -1
M  END
> <Molecule Name>
cmp_26

> <mmff94s_NoEstat>
147.63

> <Ki_nM>
1.2

$$$$
cmp_27
  -OEChem-07021816373D

 80 85  0     0  0  0  0  0  0999 V2000
    2.1071    2.5732    0.0217 C   0  0  0  0  0  0  0  0  0  0  0  0
   -1.3059   -5.8021    1.5044 C   0  0  0  0  0  0  0  0  0  0  0  0
    2.0409    3.3199   -1.1582 C   0  0  0  0  0  0  0  0  0  0  0  0
   -0.9415   -4.4757    1.3015 C   0  0  0  0  0  0  0  0  0  0  0  0
   -2.6626    0.2203    4.4881 C   0  0  0  0  0  0  0  0  0  0  0  0
   -1.6662   -1.7933    5.3768 C   0  0  0  0  0  0  0  0  0  0  0  0
   -3.5368   -5.0755    1.8934 C   0  0  0  0  0  0  0  0  0  0  0  0
    1.3376    1.3980    0.1414 C   0  0  0  0  0  0  0  0  0  0  0  0
    0.4564    1.7487   -2.1136 C   0  0  0  0  0  0  0  0  0  0  0  0
   -0.4248    1.3910   -3.1884 C   0  0  0  0  0  0  0  0  0  0  0  0
   -2.6263   -6.1162    1.8064 C   0  0  0  0  0  0  0  0  0  0  0  0
   -3.9271   -0.2479    4.8449 C   0  0  0  0  0  0  0  0  0  0  0  0
   -2.9308   -2.2615    5.7336 C   0  0  0  0  0  0  0  0  0  0  0  0
    1.1728    0.4365    1.1737 C   0  0  0  0  0  0  0  0  0  0  0  0
    0.5272    1.0022   -0.9261 C   0  0  0  0  0  0  0  0  0  0  0  0
   -1.5321   -0.5524    4.7540 C   0  0  0  0  0  0  0  0  0  0  0  0
    1.2256    2.9122   -2.2090 C   0  0  0  0  0  0  0  0  0  0  0  0
   -4.0612   -1.4888    5.4677 C   0  0  0  0  0  0  0  0  0  0  0  0
    0.2536   -0.5084    0.7546 C   0  0  0  0  0  0  0  0  0  0  0  0
   -0.2330    0.5578   -4.3068 C   0  0  0  0  0  0  0  0  0  0  0  0
   -1.7145    1.8458   -3.3161 C   0  0  0  0  0  0  0  0  0  0  0  0
   -1.9276   -3.5084    1.4108 C   0  0  0  0  0  0  0  0  0  0  0  0
   -0.2264   -1.6666    1.5086 C   0  0  0  0  0  0  0  0  0  0  0  0
   -3.0393   -7.4916    2.0237 C   0  0  0  0  0  0  0  0  0  0  0  0
   -2.3830   -1.0618   -0.8889 C   0  0  0  0  0  0  0  0  0  0  0  0
   -0.9391   -1.0016   -1.3824 C   0  0  0  0  0  0  0  0  0  0  0  0
   -2.5005   -1.1715    0.6311 C   0  0  0  0  0  0  0  0  0  0  0  0
   -5.1102    0.6141    4.5407 C   0  0  0  0  0  0  0  0  0  0  0  0
   -3.0268   -3.5970    6.3990 C   0  0  0  0  0  0  0  0  0  0  0  0
    0.9778   -0.1964   -4.6780 C   0  0  0  0  0  0  0  0  0  0  0  0
   -2.5252    2.7503   -2.4764 C   0  0  0  0  0  0  0  0  0  0  0  0
   -3.5163    1.4526   -5.0235 C   0  0  0  0  0  0  0  0  0  0  0  0
    1.8514    0.4749    2.4891 C   0  0  0  0  0  0  0  0  0  0  0  0
    1.2207    1.5014    3.4467 C   0  0  0  0  0  0  0  0  0  0  0  0
   -0.2311    1.1799    3.7731 C   0  0  0  0  0  0  0  0  0  0  0  0
   -3.2204   -3.7751    1.7027 N   0  0  0  0  0  0  0  0  0  0  0  0
   -1.3143    0.4856   -5.0874 N   0  0  0  0  0  0  0  0  0  0  0  0
   -0.0884   -0.1720   -0.5448 N   0  0  0  0  0  0  0  0  0  0  0  0
   -2.1981    1.2791   -4.4586 N   0  0  0  0  0  0  0  0  0  0  0  0
   -1.5370   -2.1295    1.1998 N   0  0  0  0  0  0  0  0  0  0  0  0
    0.4811   -2.1709    2.3813 O   0  0  0  0  0  0  0  0  0  0  0  0
   -4.1872   -7.8620    2.2956 O   0  0  0  0  0  0  0  0  0  0  0  0
   -2.0090   -8.3730    1.8950 O   0  5  0  0  0  0  0  0  0  0  0  0
   -0.2894   -0.0921    4.4033 O   0  0  0  0  0  0  0  0  0  0  0  0
    1.2033    3.9118   -3.6269 Cl  0  0  0  0  0  0  0  0  0  0  0  0
   -5.6312   -2.0701    5.9105 Cl  0  0  0  0  0  0  0  0  0  0  0  0
    2.7469    2.9044    0.8349 H   0  0  0  0  0  0  0  0  0  0  0  0
   -0.5539   -6.5826    1.4242 H   0  0  0  0  0  0  0  0  0  0  0  0
    2.6384    4.2256   -1.2345 H   0  0  0  0  0  0  0  0  0  0  0  0
    0.0865   -4.2218    1.0644 H   0  0  0  0  0  0  0  0  0  0  0  0
   -2.5534    1.1869    4.0025 H   0  0  0  0  0  0  0  0  0  0  0  0
   -0.7825   -2.3924    5.5821 H   0  0  0  0  0  0  0  0  0  0  0  0
   -4.5816   -5.2580    2.1260 H   0  0  0  0  0  0  0  0  0  0  0  0
   -2.9280   -0.1689   -1.2179 H   0  0  0  0  0  0  0  0  0  0  0  0
   -2.8733   -1.9223   -1.3602 H   0  0  0  0  0  0  0  0  0  0  0  0
   -0.4991   -2.0079   -1.3406 H   0  0  0  0  0  0  0  0  0  0  0  0
   -0.8906   -0.7322   -2.4325 H   0  0  0  0  0  0  0  0  0  0  0  0
   -2.3527   -0.1922    1.1037 H   0  0  0  0  0  0  0  0  0  0  0  0
   -3.5215   -1.4846    0.8845 H   0  0  0  0  0  0  0  0  0  0  0  0
   -5.5018    0.3810    3.5444 H   0  0  0  0  0  0  0  0  0  0  0  0
   -5.9089    0.4620    5.2762 H   0  0  0  0  0  0  0  0  0  0  0  0
   -4.8428    1.6770    4.5729 H   0  0  0  0  0  0  0  0  0  0  0  0
   -2.9588   -3.4834    7.4866 H   0  0  0  0  0  0  0  0  0  0  0  0
   -3.9747   -4.0917    6.1564 H   0  0  0  0  0  0  0  0  0  0  0  0
   -2.2227   -4.2633    6.0647 H   0  0  0  0  0  0  0  0  0  0  0  0
    0.9702   -1.2068   -4.2356 H   0  0  0  0  0  0  0  0  0  0  0  0
    1.0768   -0.3120   -5.7717 H   0  0  0  0  0  0  0  0  0  0  0  0
    1.9011    0.3078   -4.3421 H   0  0  0  0  0  0  0  0  0  0  0  0
   -2.4051    3.7991   -2.7927 H   0  0  0  0  0  0  0  0  0  0  0  0
   -3.5999    2.5062   -2.5244 H   0  0  0  0  0  0  0  0  0  0  0  0
   -2.2451    2.6867   -1.4111 H   0  0  0  0  0  0  0  0  0  0  0  0
   -3.4818    2.3074   -5.7041 H   0  0  0  0  0  0  0  0  0  0  0  0
   -3.8035    0.5457   -5.5629 H   0  0  0  0  0  0  0  0  0  0  0  0
   -4.2337    1.6326   -4.2180 H   0  0  0  0  0  0  0  0  0  0  0  0
    2.9265    0.7136    2.3754 H   0  0  0  0  0  0  0  0  0  0  0  0
    1.8317   -0.5193    2.9760 H   0  0  0  0  0  0  0  0  0  0  0  0
    1.2804    2.5079    3.0120 H   0  0  0  0  0  0  0  0  0  0  0  0
    1.7995    1.5517    4.3785 H   0  0  0  0  0  0  0  0  0  0  0  0
   -0.6526    1.9256    4.4548 H   0  0  0  0  0  0  0  0  0  0  0  0
   -0.8377    1.1455    2.8625 H   0  0  0  0  0  0  0  0  0  0  0  0
  1  3  2  0  0  0  0
  1  8  1  0  0  0  0
  2  4  2  0  0  0  0
  2 11  1  0  0  0  0
  3 17  1  0  0  0  0
  4 22  1  0  0  0  0
  5 12  2  0  0  0  0
  5 16  1  0  0  0  0
  6 13  1  0  0  0  0
  6 16  2  0  0  0  0
  7 11  2  0  0  0  0
  7 36  1  0  0  0  0
  8 14  1  0  0  0  0
  8 15  2  0  0  0  0
  9 10  1  0  0  0  0
  9 15  1  0  0  0  0
  9 17  2  0  0  0  0
 10 20  1  0  0  0  0
 10 21  2  0  0  0  0
 11 24  1  0  0  0  0
 12 18  1  0  0  0  0
 12 28  1  0  0  0  0
 13 18  2  0  0  0  0
 13 29  1  0  0  0  0
 14 19  2  0  0  0  0
 14 33  1  0  0  0  0
 15 38  1  0  0  0  0
 16 44  1  0  0  0  0
 17 45  1  0  0  0  0
 18 46  1  0  0  0  0
 19 23  1  0  0  0  0
 19 38  1  0  0  0  0
 20 30  1  0  0  0  0
 20 37  2  0  0  0  0
 21 31  1  0  0  0  0
 21 39  1  0  0  0  0
 22 36  2  0  0  0  0
 22 40  1  0  0  0  0
 23 40  1  0  0  0  0
 23 41  2  0  0  0  0
 24 42  2  0  0  0  0
 24 43  1  0  0  0  0
 25 26  1  0  0  0  0
 25 27  1  0  0  0  0
 26 38  1  0  0  0  0
 27 40  1  0  0  0  0
 32 39  1  0  0  0  0
 33 34  1  0  0  0  0
 34 35  1  0  0  0  0
 35 44  1  0  0  0  0
 37 39  1  0  0  0  0
  1 47  1  0  0  0  0
  2 48  1  0  0  0  0
  3 49  1  0  0  0  0
  4 50  1  0  0  0  0
  5 51  1  0  0  0  0
  6 52  1  0  0  0  0
  7 53  1  0  0  0  0
 25 54  1  0  0  0  0
 25 55  1  0  0  0  0
 26 56  1  0  0  0  0
 26 57  1  0  0  0  0
 27 58  1  0  0  0  0
 27 59  1  0  0  0  0
 28 60  1  0  0  0  0
 28 61  1  0  0  0  0
 28 62  1  0  0  0  0
 29 63  1  0  0  0  0
 29 64  1  0  0  0  0
 29 65  1  0  0  0  0
 30 66  1  0  0  0  0
 30 67  1  0  0  0  0
 30 68  1  0  0  0  0
 31 69  1  0  0  0  0
 31 70  1  0  0  0  0
 31 71  1  0  0  0  0
 32 72  1  0  0  0  0
 32 73  1  0  0  0  0
 32 74  1  0  0  0  0
 33 75  1  0  0  0  0
 33 76  1  0  0  0  0
 34 77  1  0  0  0  0
 34 78  1  0  0  0  0
 35 79  1  0  0  0  0
 35 80  1  0  0  0  0
M  CHG  1  43  -1
M  END
> <Molecule Name>
cmp_27

> <mmff94s_NoEstat>
144.21

> <Ki_nM>
2.4

$$$$
cmp_28
  -OEChem-07021816373D

 84 89  0     0  0  0  0  0  0999 V2000
    2.5044    2.9946    1.1371 C   0  0  0  0  0  0  0  0  0  0  0  0
   -3.8791   -5.9192    0.1373 C   0  0  0  0  0  0  0  0  0  0  0  0
    1.6774    2.8678    0.0171 C   0  0  0  0  0  0  0  0  0  0  0  0
    2.4912    2.0303    2.1399 C   0  0  0  0  0  0  0  0  0  0  0  0
   -4.6054   -5.2697    1.1354 C   0  0  0  0  0  0  0  0  0  0  0  0
   -3.1955   -5.1750   -0.8242 C   0  0  0  0  0  0  0  0  0  0  0  0
   -3.9647   -3.1318    0.2103 C   0  0  0  0  0  0  0  0  0  0  0  0
    0.6840   -2.1582   -4.6741 C   0  0  0  0  0  0  0  0  0  0  0  0
   -1.6204   -1.8693   -5.3399 C   0  0  0  0  0  0  0  0  0  0  0  0
    0.8261    1.7495   -0.0918 C   0  0  0  0  0  0  0  0  0  0  0  0
    1.6528    0.9149    2.0550 C   0  0  0  0  0  0  0  0  0  0  0  0
    1.7329   -0.0689    3.0920 C   0  0  0  0  0  0  0  0  0  0  0  0
   -4.6483   -3.8760    1.1719 C   0  0  0  0  0  0  0  0  0  0  0  0
   -3.2383   -3.7813   -0.7878 C   0  0  0  0  0  0  0  0  0  0  0  0
    0.6420   -3.4845   -5.1042 C   0  0  0  0  0  0  0  0  0  0  0  0
   -1.6624   -3.1956   -5.7700 C   0  0  0  0  0  0  0  0  0  0  0  0
   -0.1123    1.3238   -1.0703 C   0  0  0  0  0  0  0  0  0  0  0  0
    0.8253    0.7925    0.9271 C   0  0  0  0  0  0  0  0  0  0  0  0
   -0.4473   -1.3507   -4.7919 C   0  0  0  0  0  0  0  0  0  0  0  0
   -0.5312   -4.0031   -5.6521 C   0  0  0  0  0  0  0  0  0  0  0  0
   -0.6434    0.1118   -0.6704 C   0  0  0  0  0  0  0  0  0  0  0  0
    1.0408   -0.1888    4.3120 C   0  0  0  0  0  0  0  0  0  0  0  0
    2.5756   -1.1532    3.0673 C   0  0  0  0  0  0  0  0  0  0  0  0
   -1.6228   -0.7027   -1.3783 C   0  0  0  0  0  0  0  0  0  0  0  0
   -5.4052   -3.1991    2.2130 C   0  0  0  0  0  0  0  0  0  0  0  0
   -0.1609   -2.6405    0.8079 C   0  0  0  0  0  0  0  0  0  0  0  0
   -0.5391   -1.2817    1.3897 C   0  0  0  0  0  0  0  0  0  0  0  0
   -0.2913   -2.7336   -0.7114 C   0  0  0  0  0  0  0  0  0  0  0  0
    1.8782   -4.3127   -4.9586 C   0  0  0  0  0  0  0  0  0  0  0  0
   -2.9410   -3.7088   -6.3509 C   0  0  0  0  0  0  0  0  0  0  0  0
    0.0080    0.7088    4.8602 C   0  0  0  0  0  0  0  0  0  0  0  0
    3.5632   -1.6075    2.0679 C   0  0  0  0  0  0  0  0  0  0  0  0
    2.9916   -3.0458    4.6676 C   0  0  0  0  0  0  0  0  0  0  0  0
   -0.4264    2.0466   -2.3236 C   0  0  0  0  0  0  0  0  0  0  0  0
   -2.5027   -2.9802   -1.8227 C   0  0  0  0  0  0  0  0  0  0  0  0
    0.6613    1.8634   -3.3970 C   0  0  0  0  0  0  0  0  0  0  0  0
    0.8229    0.4107   -3.8223 C   0  0  0  0  0  0  0  0  0  0  0  0
    1.4116   -1.2645    5.0116 N   0  0  0  0  0  0  0  0  0  0  0  0
   -0.1002   -0.1654    0.5711 N   0  0  0  0  0  0  0  0  0  0  0  0
    2.3457   -1.8305    4.2286 N   0  0  0  0  0  0  0  0  0  0  0  0
   -1.5094   -2.1000   -1.2255 N   0  0  0  0  0  0  0  0  0  0  0  0
   -2.4952   -0.1812   -2.0743 O   0  0  0  0  0  0  0  0  0  0  0  0
   -6.0445   -3.7569    3.1110 O   0  0  0  0  0  0  0  0  0  0  0  0
   -5.3419   -1.8436    2.1048 O   0  5  0  0  0  0  0  0  0  0  0  0
   -0.4058   -0.0473   -4.3693 O   0  0  0  0  0  0  0  0  0  0  0  0
   -0.5832   -5.6497   -6.1859 Cl  0  0  0  0  0  0  0  0  0  0  0  0
    3.1645    3.8536    1.2225 H   0  0  0  0  0  0  0  0  0  0  0  0
   -3.8467   -7.0045    0.1082 H   0  0  0  0  0  0  0  0  0  0  0  0
    1.6997    3.6282   -0.7590 H   0  0  0  0  0  0  0  0  0  0  0  0
    3.1566    2.1575    2.9921 H   0  0  0  0  0  0  0  0  0  0  0  0
   -5.1340   -5.8595    1.8800 H   0  0  0  0  0  0  0  0  0  0  0  0
   -2.6315   -5.6896   -1.5979 H   0  0  0  0  0  0  0  0  0  0  0  0
   -3.9980   -2.0449    0.2366 H   0  0  0  0  0  0  0  0  0  0  0  0
    1.5963   -1.7499   -4.2464 H   0  0  0  0  0  0  0  0  0  0  0  0
   -2.4998   -1.2364   -5.4298 H   0  0  0  0  0  0  0  0  0  0  0  0
    0.8730   -2.8843    1.0811 H   0  0  0  0  0  0  0  0  0  0  0  0
   -0.7949   -3.4029    1.2768 H   0  0  0  0  0  0  0  0  0  0  0  0
   -1.6342   -1.2006    1.4364 H   0  0  0  0  0  0  0  0  0  0  0  0
   -0.2151   -1.1906    2.4228 H   0  0  0  0  0  0  0  0  0  0  0  0
    0.5690   -2.2505   -1.1912 H   0  0  0  0  0  0  0  0  0  0  0  0
   -0.2679   -3.7852   -1.0212 H   0  0  0  0  0  0  0  0  0  0  0  0
    1.8838   -4.8161   -3.9855 H   0  0  0  0  0  0  0  0  0  0  0  0
    1.9396   -5.0722   -5.7470 H   0  0  0  0  0  0  0  0  0  0  0  0
    2.7797   -3.6937   -5.0388 H   0  0  0  0  0  0  0  0  0  0  0  0
   -2.9570   -3.5448   -7.4340 H   0  0  0  0  0  0  0  0  0  0  0  0
   -3.0604   -4.7812   -6.1565 H   0  0  0  0  0  0  0  0  0  0  0  0
   -3.8070   -3.2040   -5.9065 H   0  0  0  0  0  0  0  0  0  0  0  0
   -1.0011    0.3986    4.5406 H   0  0  0  0  0  0  0  0  0  0  0  0
    0.0169    0.7278    5.9641 H   0  0  0  0  0  0  0  0  0  0  0  0
    0.1530    1.7550    4.5381 H   0  0  0  0  0  0  0  0  0  0  0  0
    4.5568   -1.1741    2.2667 H   0  0  0  0  0  0  0  0  0  0  0  0
    3.6708   -2.7054    2.0627 H   0  0  0  0  0  0  0  0  0  0  0  0
    3.2727   -1.3246    1.0418 H   0  0  0  0  0  0  0  0  0  0  0  0
    3.8782   -2.7675    5.2434 H   0  0  0  0  0  0  0  0  0  0  0  0
    2.2992   -3.6230    5.2867 H   0  0  0  0  0  0  0  0  0  0  0  0
    3.2729   -3.6412    3.7945 H   0  0  0  0  0  0  0  0  0  0  0  0
   -0.5572    3.1300   -2.1363 H   0  0  0  0  0  0  0  0  0  0  0  0
   -1.3950    1.7128   -2.7434 H   0  0  0  0  0  0  0  0  0  0  0  0
   -1.9871   -3.6412   -2.5280 H   0  0  0  0  0  0  0  0  0  0  0  0
   -3.1934   -2.3601   -2.4037 H   0  0  0  0  0  0  0  0  0  0  0  0
    1.6230    2.2421   -3.0266 H   0  0  0  0  0  0  0  0  0  0  0  0
    0.4269    2.4755   -4.2780 H   0  0  0  0  0  0  0  0  0  0  0  0
    1.6019    0.3113   -4.5851 H   0  0  0  0  0  0  0  0  0  0  0  0
    1.0796   -0.2207   -2.9657 H   0  0  0  0  0  0  0  0  0  0  0  0
  1  3  2  0  0  0  0
  1  4  1  0  0  0  0
  2  5  1  0  0  0  0
  2  6  2  0  0  0  0
  3 10  1  0  0  0  0
  4 11  2  0  0  0  0
  5 13  2  0  0  0  0
  6 14  1  0  0  0  0
  7 13  1  0  0  0  0
  7 14  2  0  0  0  0
  8 15  2  0  0  0  0
  8 19  1  0  0  0  0
  9 16  1  0  0  0  0
  9 19  2  0  0  0  0
 10 17  1  0  0  0  0
 10 18  2  0  0  0  0
 11 12  1  0  0  0  0
 11 18  1  0  0  0  0
 12 22  1  0  0  0  0
 12 23  2  0  0  0  0
 13 25  1  0  0  0  0
 14 35  1  0  0  0  0
 15 20  1  0  0  0  0
 15 29  1  0  0  0  0
 16 20  2  0  0  0  0
 16 30  1  0  0  0  0
 17 21  2  0  0  0  0
 17 34  1  0  0  0  0
 18 39  1  0  0  0  0
 19 45  1  0  0  0  0
 20 46  1  0  0  0  0
 21 24  1  0  0  0  0
 21 39  1  0  0  0  0
 22 31  1  0  0  0  0
 22 38  2  0  0  0  0
 23 32  1  0  0  0  0
 23 40  1  0  0  0  0
 24 41  1  0  0  0  0
 24 42  2  0  0  0  0
 25 43  2  0  0  0  0
 25 44  1  0  0  0  0
 26 27  1  0  0  0  0
 26 28  1  0  0  0  0
 27 39  1  0  0  0  0
 28 41  1  0  0  0  0
 33 40  1  0  0  0  0
 34 36  1  0  0  0  0
 35 41  1  0  0  0  0
 36 37  1  0  0  0  0
 37 45  1  0  0  0  0
 38 40  1  0  0  0  0
  1 47  1  0  0  0  0
  2 48  1  0  0  0  0
  3 49  1  0  0  0  0
  4 50  1  0  0  0  0
  5 51  1  0  0  0  0
  6 52  1  0  0  0  0
  7 53  1  0  0  0  0
  8 54  1  0  0  0  0
  9 55  1  0  0  0  0
 26 56  1  0  0  0  0
 26 57  1  0  0  0  0
 27 58  1  0  0  0  0
 27 59  1  0  0  0  0
 28 60  1  0  0  0  0
 28 61  1  0  0  0  0
 29 62  1  0  0  0  0
 29 63  1  0  0  0  0
 29 64  1  0  0  0  0
 30 65  1  0  0  0  0
 30 66  1  0  0  0  0
 30 67  1  0  0  0  0
 31 68  1  0  0  0  0
 31 69  1  0  0  0  0
 31 70  1  0  0  0  0
 32 71  1  0  0  0  0
 32 72  1  0  0  0  0
 32 73  1  0  0  0  0
 33 74  1  0  0  0  0
 33 75  1  0  0  0  0
 33 76  1  0  0  0  0
 34 77  1  0  0  0  0
 34 78  1  0  0  0  0
 35 79  1  0  0  0  0
 35 80  1  0  0  0  0
 36 81  1  0  0  0  0
 36 82  1  0  0  0  0
 37 83  1  0  0  0  0
 37 84  1  0  0  0  0
M  CHG  1  44  -1
M  END
> <Molecule Name>
cmp_28

> <mmff94s_NoEstat>
128.20

> <Ki_nM>
21

$$$$
