cmp_1
  -OEChem-07021816513D

 45 47  0     0  0  0  0  0  0999 V2000
    5.2939   -2.5185   -4.5651 C   0  0  0  0  0  0  0  0  0  0  0  0
    3.8603   -0.6957   -9.9632 C   0  0  0  0  0  0  0  0  0  0  0  0
    5.3361   -1.9696   -5.8467 C   0  0  0  0  0  0  0  0  0  0  0  0
    3.7981   -1.2340   -8.6780 C   0  0  0  0  0  0  0  0  0  0  0  0
    4.2349   -2.2134   -3.7101 C   0  0  0  0  0  0  0  0  0  0  0  0
    4.5082    0.5206  -10.1794 C   0  0  0  0  0  0  0  0  0  0  0  0
    5.0315    0.6602   -7.8249 C   0  0  0  0  0  0  0  0  0  0  0  0
    4.3836   -0.5561   -7.6088 C   0  0  0  0  0  0  0  0  0  0  0  0
    4.3192   -1.1155   -6.2733 C   0  0  0  0  0  0  0  0  0  0  0  0
    3.2180   -1.3593   -4.1367 C   0  0  0  0  0  0  0  0  0  0  0  0
    5.0937    1.1985   -9.1102 C   0  0  0  0  0  0  0  0  0  0  0  0
    3.2601   -0.8103   -5.4184 C   0  0  0  0  0  0  0  0  0  0  0  0
    0.8310   -0.6164   -0.5389 C   0  0  0  0  0  0  0  0  0  0  0  0
    1.1649    0.5610   -1.4500 C   0  0  0  0  0  0  0  0  0  0  0  0
    0.5714   -1.8901   -1.3376 C   0  0  0  0  0  0  0  0  0  0  0  0
    2.3350    0.2414   -2.3786 C   0  0  0  0  0  0  0  0  0  0  0  0
    1.7386   -2.2217   -2.2656 C   0  0  0  0  0  0  0  0  0  0  0  0
    2.0787   -1.0402   -3.1926 C   0  0  0  0  0  0  0  0  0  0  0  0
    5.7861    2.4991   -9.3421 C   0  0  0  0  0  0  0  0  0  0  0  0
    4.2756    4.2095   -7.7925 O   0  0  0  0  0  0  0  0  0  0  0  0
    2.2607    0.0261   -5.8251 O   0  0  0  0  0  0  0  0  0  0  0  0
    5.8772    5.1551   -9.6462 O   0  5  0  0  0  0  0  0  0  0  0  0
    3.7760    3.9325  -10.3563 O   0  5  0  0  0  0  0  0  0  0  0  0
    6.8106    2.7517   -8.4863 F   0  0  0  0  0  0  0  0  0  0  0  0
    6.2815    2.6645  -10.5958 F   0  0  0  0  0  0  0  0  0  0  0  0
    4.8597    3.9968   -9.1578 P   0  0  0  0  0  0  0  0  0  0  0  0
    6.0855   -3.1840   -4.2328 H   0  0  0  0  0  0  0  0  0  0  0  0
    3.4040   -1.2236  -10.7957 H   0  0  0  0  0  0  0  0  0  0  0  0
    6.1691   -2.2175   -6.5003 H   0  0  0  0  0  0  0  0  0  0  0  0
    3.2896   -2.1833   -8.5256 H   0  0  0  0  0  0  0  0  0  0  0  0
    4.2112   -2.6451   -2.7131 H   0  0  0  0  0  0  0  0  0  0  0  0
    4.5522    0.9328  -11.1842 H   0  0  0  0  0  0  0  0  0  0  0  0
    5.4900    1.1943   -6.9951 H   0  0  0  0  0  0  0  0  0  0  0  0
    1.6620   -0.7856    0.1571 H   0  0  0  0  0  0  0  0  0  0  0  0
   -0.0492   -0.3754    0.0676 H   0  0  0  0  0  0  0  0  0  0  0  0
    0.2834    0.8198   -2.0496 H   0  0  0  0  0  0  0  0  0  0  0  0
    1.4076    1.4398   -0.8421 H   0  0  0  0  0  0  0  0  0  0  0  0
    0.3987   -2.7265   -0.6510 H   0  0  0  0  0  0  0  0  0  0  0  0
   -0.3433   -1.7687   -1.9308 H   0  0  0  0  0  0  0  0  0  0  0  0
    2.5065    1.0885   -3.0546 H   0  0  0  0  0  0  0  0  0  0  0  0
    3.2495    0.1308   -1.7803 H   0  0  0  0  0  0  0  0  0  0  0  0
    2.6149   -2.4895   -1.6600 H   0  0  0  0  0  0  0  0  0  0  0  0
    1.4901   -3.1085   -2.8619 H   0  0  0  0  0  0  0  0  0  0  0  0
    1.1813   -0.8526   -3.8439 H   0  0  0  0  0  0  0  0  0  0  0  0
    1.6077    0.1325   -5.1170 H   0  0  0  0  0  0  0  0  0  0  0  0
  1  3  2  0  0  0  0
  1  5  1  0  0  0  0
  2  4  1  0  0  0  0
  2  6  2  0  0  0  0
  3  9  1  0  0  0  0
  4  8  2  0  0  0  0
  5 10  2  0  0  0  0
  6 11  1  0  0  0  0
  7  8  1  0  0  0  0
  7 11  2  0  0  0  0
  8  9  1  0  0  0  0
  9 12  2  0  0  0  0
 10 12  1  0  0  0  0
 10 18  1  0  0  0  0
 11 19  1  0  0  0  0
 12 21  1  0  0  0  0
 13 14  1  0  0  0  0
 13 15  1  0  0  0  0
 14 16  1  0  0  0  0
 15 17  1  0  0  0  0
 16 18  1  0  0  0  0
 17 18  1  0  0  0  0
 19 24  1  0  0  0  0
 19 25  1  0  0  0  0
 19 26  1  0  0  0  0
 20 26  2  0  0  0  0
 22 26  1  0  0  0  0
 23 26  1  0  0  0  0
  1 27  1  0  0  0  0
  2 28  1  0  0  0  0
  3 29  1  0  0  0  0
  4 30  1  0  0  0  0
  5 31  1  0  0  0  0
  6 32  1  0  0  0  0
  7 33  1  0  0  0  0
 13 34  1  0  0  0  0
 13 35  1  0  0  0  0
 14 36  1  0  0  0  0
 14 37  1  0  0  0  0
 15 38  1  0  0  0  0
 15 39  1  0  0  0  0
 16 40  1  0  0  0  0
 16 41  1  0  0  0  0
 17 42  1  0  0  0  0
 17 43  1  0  0  0  0
 18 44  1  0  0  0  0
 21 45  1  0  0  0  0
M  CHG  2  22  -1  23  -1
M  END
> <Molecule Name>
cmp_1

> <mmff94s_NoEstat>
33.97

> <Ki_microM>
20

$$$$
cmp_2
  -OEChem-07021816513D

 43 45  0     1  0  0  0  0  0999 V2000
    5.1606   -2.7783   -2.1580 C   0  0  0  0  0  0  0  0  0  0  0  0
    4.0822   -2.2047   -1.4845 C   0  0  0  0  0  0  0  0  0  0  0  0
    2.2433   -0.5489    0.0461 C   0  0  0  0  0  0  0  0  0  0  0  0
    2.5202   -2.1393    1.8436 C   0  0  0  0  0  0  0  0  0  0  0  0
    6.1964   -3.3730   -1.4374 C   0  0  0  0  0  0  0  0  0  0  0  0
    1.1647    0.0244    0.7195 C   0  0  0  0  0  0  0  0  0  0  0  0
    1.4416   -1.5659    2.5171 C   0  0  0  0  0  0  0  0  0  0  0  0
    7.5203   -6.4777    0.1437 C   0  0  0  0  0  0  0  0  0  0  0  0
    7.3145   -7.8305    0.4139 C   0  0  0  0  0  0  0  0  0  0  0  0
    5.0754   -2.8203    0.6302 C   0  0  0  0  0  0  0  0  0  0  0  0
    6.3464   -5.8938    2.1730 C   0  0  0  0  0  0  0  0  0  0  0  0
    2.9210   -1.6309    0.6081 C   0  0  0  0  0  0  0  0  0  0  0  0
    4.0396   -2.2257   -0.0904 C   0  0  0  0  0  0  0  0  0  0  0  0
    0.7638   -0.4840    1.9550 C   0  0  0  0  0  0  0  0  0  0  0  0
    6.1538   -3.3940   -0.0434 C   0  0  0  0  0  0  0  0  0  0  0  0
    7.0362   -5.5093    1.0233 C   0  0  0  0  0  0  0  0  0  0  0  0
    6.6246   -8.2151    1.5636 C   0  0  0  0  0  0  0  0  0  0  0  0
    6.1405   -7.2467    2.4432 C   0  0  0  0  0  0  0  0  0  0  0  0
    7.2618   -4.0299    0.7264 C   0  0  2  0  0  0  0  0  0  0  0  0
   -0.3895    0.1289    2.6748 C   0  0  1  0  0  0  0  0  0  0  0  0
   -2.3748   -0.3432    0.7984 O   0  0  0  0  0  0  0  0  0  0  0  0
    7.5237   -3.3177    1.9483 O   0  0  0  0  0  0  0  0  0  0  0  0
   -0.4553    1.5359    2.4263 O   0  0  0  0  0  0  0  0  0  0  0  0
   -1.9781   -2.0447    2.7587 O   0  5  0  0  0  0  0  0  0  0  0  0
   -3.0157    0.2070    3.2880 O   0  5  0  0  0  0  0  0  0  0  0  0
   -2.0121   -0.5118    2.2443 P   0  0  0  0  0  0  0  0  0  0  0  0
    6.4015   -9.9067    1.8420 Cl  0  0  0  0  0  0  0  0  0  0  0  0
    5.2786   -7.6602    3.8837 Cl  0  0  0  0  0  0  0  0  0  0  0  0
    5.1939   -2.7615   -3.2436 H   0  0  0  0  0  0  0  0  0  0  0  0
    3.2823   -1.7450   -2.0604 H   0  0  0  0  0  0  0  0  0  0  0  0
    2.5433   -0.1417   -0.9165 H   0  0  0  0  0  0  0  0  0  0  0  0
    3.0387   -2.9818    2.2951 H   0  0  0  0  0  0  0  0  0  0  0  0
    7.0329   -3.8178   -1.9703 H   0  0  0  0  0  0  0  0  0  0  0  0
    0.6418    0.8663    0.2736 H   0  0  0  0  0  0  0  0  0  0  0  0
    1.1363   -1.9681    3.4796 H   0  0  0  0  0  0  0  0  0  0  0  0
    8.0583   -6.1869   -0.7550 H   0  0  0  0  0  0  0  0  0  0  0  0
    7.6987   -8.5716   -0.2829 H   0  0  0  0  0  0  0  0  0  0  0  0
    5.0485   -2.8398    1.7177 H   0  0  0  0  0  0  0  0  0  0  0  0
    5.9723   -5.1323    2.8537 H   0  0  0  0  0  0  0  0  0  0  0  0
    8.2078   -3.9395    0.1619 H   0  0  0  0  0  0  0  0  0  0  0  0
   -0.2550    0.0199    3.7626 H   0  0  0  0  0  0  0  0  0  0  0  0
    8.2467   -3.7918    2.3793 H   0  0  0  0  0  0  0  0  0  0  0  0
    0.3736    1.9353    2.7405 H   0  0  0  0  0  0  0  0  0  0  0  0
  1  2  1  0  0  0  0
  1  5  2  0  0  0  0
  2 13  2  0  0  0  0
  3  6  1  0  0  0  0
  3 12  2  0  0  0  0
  4  7  2  0  0  0  0
  4 12  1  0  0  0  0
  5 15  1  0  0  0  0
  6 14  2  0  0  0  0
  7 14  1  0  0  0  0
  8  9  1  0  0  0  0
  8 16  2  0  0  0  0
  9 17  2  0  0  0  0
 10 13  1  0  0  0  0
 10 15  2  0  0  0  0
 11 16  1  0  0  0  0
 11 18  2  0  0  0  0
 12 13  1  0  0  0  0
 14 20  1  0  0  0  0
 15 19  1  0  0  0  0
 16 19  1  0  0  0  0
 17 18  1  0  0  0  0
 17 27  1  0  0  0  0
 18 28  1  0  0  0  0
 19 22  1  0  0  0  0
 20 23  1  0  0  0  0
 20 26  1  0  0  0  0
 21 26  2  0  0  0  0
 24 26  1  0  0  0  0
 25 26  1  0  0  0  0
  1 29  1  0  0  0  0
  2 30  1  0  0  0  0
  3 31  1  0  0  0  0
  4 32  1  0  0  0  0
  5 33  1  0  0  0  0
  6 34  1  0  0  0  0
  7 35  1  0  0  0  0
  8 36  1  0  0  0  0
  9 37  1  0  0  0  0
 10 38  1  0  0  0  0
 11 39  1  0  0  0  0
 19 40  1  0  0  0  0
 20 41  1  0  0  0  0
 22 42  1  0  0  0  0
 23 43  1  0  0  0  0
M  CHG  2  24  -1  25  -1
M  END
> <Molecule Name>
cmp_2

> <mmff94s_NoEstat>
49.45

> <Ki_microM>
8.9

$$$$
cmp_3
  -OEChem-07021816513D

 43 45  0     1  0  0  0  0  0999 V2000
    5.1606   -2.7783   -2.1580 C   0  0  0  0  0  0  0  0  0  0  0  0
    4.0822   -2.2047   -1.4845 C   0  0  0  0  0  0  0  0  0  0  0  0
    1.6600   -1.6063    0.0123 C   0  0  0  0  0  0  0  0  0  0  0  0
    3.1034   -1.0820    1.8775 C   0  0  0  0  0  0  0  0  0  0  0  0
    6.1964   -3.3730   -1.4374 C   0  0  0  0  0  0  0  0  0  0  0  0
    0.5814   -1.0330    0.6859 C   0  0  0  0  0  0  0  0  0  0  0  0
    2.0249   -0.5087    2.5510 C   0  0  0  0  0  0  0  0  0  0  0  0
    9.0924   -2.3681    1.2603 C   0  0  0  0  0  0  0  0  0  0  0  0
    9.7394   -1.4963    2.1359 C   0  0  0  0  0  0  0  0  0  0  0  0
    5.0754   -2.8203    0.6302 C   0  0  0  0  0  0  0  0  0  0  0  0
    7.4916   -2.9132    2.9858 C   0  0  0  0  0  0  0  0  0  0  0  0
    2.9210   -1.6309    0.6081 C   0  0  0  0  0  0  0  0  0  0  0  0
    4.0396   -2.2257   -0.0904 C   0  0  0  0  0  0  0  0  0  0  0  0
    0.7639   -0.4842    1.9552 C   0  0  0  0  0  0  0  0  0  0  0  0
    6.1538   -3.3940   -0.0434 C   0  0  0  0  0  0  0  0  0  0  0  0
    7.9684   -3.0765    1.6852 C   0  0  0  0  0  0  0  0  0  0  0  0
    9.2626   -1.3329    3.4366 C   0  0  0  0  0  0  0  0  0  0  0  0
    8.1387   -2.0414    3.8615 C   0  0  0  0  0  0  0  0  0  0  0  0
    7.2618   -4.0299    0.7264 C   0  0  1  0  0  0  0  0  0  0  0  0
   -0.3893    0.1285    2.6755 C   0  0  1  0  0  0  0  0  0  0  0  0
   -2.0208   -2.1048    2.8652 O   0  0  0  0  0  0  0  0  0  0  0  0
    6.7999   -5.2024    1.4199 O   0  0  0  0  0  0  0  0  0  0  0  0
   -1.2960    0.7428    1.7555 O   0  0  0  0  0  0  0  0  0  0  0  0
   -0.3898   -1.4892    4.8290 O   0  5  0  0  0  0  0  0  0  0  0  0
   -2.4287   -0.0351    4.4342 O   0  5  0  0  0  0  0  0  0  0  0  0
   -1.3888   -0.9976    3.6560 P   0  0  0  0  0  0  0  0  0  0  0  0
   10.1085   -0.2386    4.4739 Cl  0  0  0  0  0  0  0  0  0  0  0  0
    7.5001   -1.8817    5.4602 Cl  0  0  0  0  0  0  0  0  0  0  0  0
    5.1939   -2.7615   -3.2436 H   0  0  0  0  0  0  0  0  0  0  0  0
    3.2823   -1.7450   -2.0604 H   0  0  0  0  0  0  0  0  0  0  0  0
    1.5016   -2.0306   -0.9763 H   0  0  0  0  0  0  0  0  0  0  0  0
    4.0804   -1.0929    2.3549 H   0  0  0  0  0  0  0  0  0  0  0  0
    7.0329   -3.8178   -1.9703 H   0  0  0  0  0  0  0  0  0  0  0  0
   -0.3977   -1.0193    0.2146 H   0  0  0  0  0  0  0  0  0  0  0  0
    2.1762   -0.0829    3.5395 H   0  0  0  0  0  0  0  0  0  0  0  0
    9.4713   -2.4899    0.2487 H   0  0  0  0  0  0  0  0  0  0  0  0
   10.6142   -0.9524    1.7878 H   0  0  0  0  0  0  0  0  0  0  0  0
    5.0485   -2.8398    1.7177 H   0  0  0  0  0  0  0  0  0  0  0  0
    6.6145   -3.4693    3.3090 H   0  0  0  0  0  0  0  0  0  0  0  0
    8.0211   -4.4266    0.0280 H   0  0  0  0  0  0  0  0  0  0  0  0
   -0.0347    0.9361    3.3353 H   0  0  0  0  0  0  0  0  0  0  0  0
    6.1030   -4.8980    2.0158 H   0  0  0  0  0  0  0  0  0  0  0  0
   -0.8111    1.4327    1.2715 H   0  0  0  0  0  0  0  0  0  0  0  0
  1  2  1  0  0  0  0
  1  5  2  0  0  0  0
  2 13  2  0  0  0  0
  3  6  1  0  0  0  0
  3 12  2  0  0  0  0
  4  7  2  0  0  0  0
  4 12  1  0  0  0  0
  5 15  1  0  0  0  0
  6 14  2  0  0  0  0
  7 14  1  0  0  0  0
  8  9  1  0  0  0  0
  8 16  2  0  0  0  0
  9 17  2  0  0  0  0
 10 13  1  0  0  0  0
 10 15  2  0  0  0  0
 11 16  1  0  0  0  0
 11 18  2  0  0  0  0
 12 13  1  0  0  0  0
 14 20  1  0  0  0  0
 15 19  1  0  0  0  0
 16 19  1  0  0  0  0
 17 18  1  0  0  0  0
 17 27  1  0  0  0  0
 18 28  1  0  0  0  0
 19 22  1  0  0  0  0
 20 23  1  0  0  0  0
 20 26  1  0  0  0  0
 21 26  2  0  0  0  0
 24 26  1  0  0  0  0
 25 26  1  0  0  0  0
  1 29  1  0  0  0  0
  2 30  1  0  0  0  0
  3 31  1  0  0  0  0
  4 32  1  0  0  0  0
  5 33  1  0  0  0  0
  6 34  1  0  0  0  0
  7 35  1  0  0  0  0
  8 36  1  0  0  0  0
  9 37  1  0  0  0  0
 10 38  1  0  0  0  0
 11 39  1  0  0  0  0
 19 40  1  0  0  0  0
 20 41  1  0  0  0  0
 22 42  1  0  0  0  0
 23 43  1  0  0  0  0
M  CHG  2  24  -1  25  -1
M  END
> <Molecule Name>
cmp_3

> <mmff94s_NoEstat>
52.96

> <Ki_microM>
7.8

$$$$
cmp_4
  -OEChem-07021816513D

 41 43  0     0  0  0  0  0  0999 V2000
    5.1606   -2.7783   -2.1580 C   0  0  0  0  0  0  0  0  0  0  0  0
    4.0822   -2.2047   -1.4845 C   0  0  0  0  0  0  0  0  0  0  0  0
    1.6600   -1.6063    0.0123 C   0  0  0  0  0  0  0  0  0  0  0  0
    3.1034   -1.0820    1.8775 C   0  0  0  0  0  0  0  0  0  0  0  0
    6.1964   -3.3730   -1.4374 C   0  0  0  0  0  0  0  0  0  0  0  0
    0.5814   -1.0330    0.6859 C   0  0  0  0  0  0  0  0  0  0  0  0
    2.0249   -0.5087    2.5510 C   0  0  0  0  0  0  0  0  0  0  0  0
    9.4677   -2.8108    0.7122 C   0  0  0  0  0  0  0  0  0  0  0  0
   10.3674   -1.9004    1.2665 C   0  0  0  0  0  0  0  0  0  0  0  0
    5.0754   -2.8203    0.6302 C   0  0  0  0  0  0  0  0  0  0  0  0
    7.9084   -2.3595    2.5015 C   0  0  0  0  0  0  0  0  0  0  0  0
    2.9210   -1.6309    0.6081 C   0  0  0  0  0  0  0  0  0  0  0  0
    4.0396   -2.2257   -0.0904 C   0  0  0  0  0  0  0  0  0  0  0  0
    0.7639   -0.4842    1.9552 C   0  0  0  0  0  0  0  0  0  0  0  0
    6.1538   -3.3940   -0.0434 C   0  0  0  0  0  0  0  0  0  0  0  0
    8.2382   -3.0403    1.3297 C   0  0  0  0  0  0  0  0  0  0  0  0
   10.0376   -1.2195    2.4384 C   0  0  0  0  0  0  0  0  0  0  0  0
    8.8081   -1.4491    3.0559 C   0  0  0  0  0  0  0  0  0  0  0  0
    7.2618   -4.0299    0.7264 C   0  0  0  0  0  0  0  0  0  0  0  0
   -0.3893    0.1285    2.6755 C   0  0  0  0  0  0  0  0  0  0  0  0
   -0.5534   -1.4745    4.9142 O   0  0  0  0  0  0  0  0  0  0  0  0
   -2.5693    0.0602    4.2242 O   0  5  0  0  0  0  0  0  0  0  0  0
   -2.0368   -1.9675    2.8034 O   0  5  0  0  0  0  0  0  0  0  0  0
   -0.0536    1.1397    3.5184 F   0  0  0  0  0  0  0  0  0  0  0  0
   -1.3732    0.6080    1.8711 F   0  0  0  0  0  0  0  0  0  0  0  0
   -1.3350   -0.8845    3.7777 P   0  0  0  0  0  0  0  0  0  0  0  0
   11.1951   -0.1048    3.0761 Cl  0  0  0  0  0  0  0  0  0  0  0  0
    8.3420   -0.6366    4.5091 Cl  0  0  0  0  0  0  0  0  0  0  0  0
    5.1939   -2.7615   -3.2436 H   0  0  0  0  0  0  0  0  0  0  0  0
    3.2823   -1.7450   -2.0604 H   0  0  0  0  0  0  0  0  0  0  0  0
    1.5016   -2.0306   -0.9763 H   0  0  0  0  0  0  0  0  0  0  0  0
    4.0804   -1.0929    2.3549 H   0  0  0  0  0  0  0  0  0  0  0  0
    7.0329   -3.8178   -1.9703 H   0  0  0  0  0  0  0  0  0  0  0  0
   -0.3977   -1.0193    0.2146 H   0  0  0  0  0  0  0  0  0  0  0  0
    2.1762   -0.0829    3.5395 H   0  0  0  0  0  0  0  0  0  0  0  0
    9.7333   -3.3376   -0.2009 H   0  0  0  0  0  0  0  0  0  0  0  0
   11.3212   -1.7341    0.7718 H   0  0  0  0  0  0  0  0  0  0  0  0
    5.0485   -2.8398    1.7177 H   0  0  0  0  0  0  0  0  0  0  0  0
    6.9475   -2.5443    2.9766 H   0  0  0  0  0  0  0  0  0  0  0  0
    6.8568   -4.6678    1.5316 H   0  0  0  0  0  0  0  0  0  0  0  0
    7.8198   -4.7377    0.0883 H   0  0  0  0  0  0  0  0  0  0  0  0
  1  2  1  0  0  0  0
  1  5  2  0  0  0  0
  2 13  2  0  0  0  0
  3  6  1  0  0  0  0
  3 12  2  0  0  0  0
  4  7  2  0  0  0  0
  4 12  1  0  0  0  0
  5 15  1  0  0  0  0
  6 14  2  0  0  0  0
  7 14  1  0  0  0  0
  8  9  1  0  0  0  0
  8 16  2  0  0  0  0
  9 17  2  0  0  0  0
 10 13  1  0  0  0  0
 10 15  2  0  0  0  0
 11 16  1  0  0  0  0
 11 18  2  0  0  0  0
 12 13  1  0  0  0  0
 14 20  1  0  0  0  0
 15 19  1  0  0  0  0
 16 19  1  0  0  0  0
 17 18  1  0  0  0  0
 17 27  1  0  0  0  0
 18 28  1  0  0  0  0
 20 24  1  0  0  0  0
 20 25  1  0  0  0  0
 20 26  1  0  0  0  0
 21 26  2  0  0  0  0
 22 26  1  0  0  0  0
 23 26  1  0  0  0  0
  1 29  1  0  0  0  0
  2 30  1  0  0  0  0
  3 31  1  0  0  0  0
  4 32  1  0  0  0  0
  5 33  1  0  0  0  0
  6 34  1  0  0  0  0
  7 35  1  0  0  0  0
  8 36  1  0  0  0  0
  9 37  1  0  0  0  0
 10 38  1  0  0  0  0
 11 39  1  0  0  0  0
 19 40  1  0  0  0  0
 19 41  1  0  0  0  0
M  CHG  2  22  -1  23  -1
M  END
> <Molecule Name>
cmp_4

> <mmff94s_NoEstat>
41.24

> <Ki_microM>
9.6

$$$$
cmp_5
  -OEChem-07021816513D

 41 43  0     0  0  0  0  0  0999 V2000
    5.1606   -2.7783   -2.1580 C   0  0  0  0  0  0  0  0  0  0  0  0
    4.0822   -2.2047   -1.4845 C   0  0  0  0  0  0  0  0  0  0  0  0
    1.6600   -1.6063    0.0123 C   0  0  0  0  0  0  0  0  0  0  0  0
    3.1034   -1.0820    1.8775 C   0  0  0  0  0  0  0  0  0  0  0  0
    6.1964   -3.3730   -1.4374 C   0  0  0  0  0  0  0  0  0  0  0  0
    0.5814   -1.0330    0.6859 C   0  0  0  0  0  0  0  0  0  0  0  0
    2.0249   -0.5087    2.5510 C   0  0  0  0  0  0  0  0  0  0  0  0
    5.0754   -2.8203    0.6302 C   0  0  0  0  0  0  0  0  0  0  0  0
    8.0158   -2.5377    2.6116 C   0  0  0  0  0  0  0  0  0  0  0  0
   10.2549   -1.7205    1.1620 C   0  0  0  0  0  0  0  0  0  0  0  0
    2.9210   -1.6309    0.6081 C   0  0  0  0  0  0  0  0  0  0  0  0
    4.0396   -2.2257   -0.0904 C   0  0  0  0  0  0  0  0  0  0  0  0
    0.7639   -0.4842    1.9552 C   0  0  0  0  0  0  0  0  0  0  0  0
    6.1538   -3.3940   -0.0434 C   0  0  0  0  0  0  0  0  0  0  0  0
    8.2382   -3.0403    1.3297 C   0  0  0  0  0  0  0  0  0  0  0  0
    9.3577   -2.6318    0.6048 C   0  0  0  0  0  0  0  0  0  0  0  0
    8.9129   -1.6263    3.1688 C   0  0  0  0  0  0  0  0  0  0  0  0
   10.0324   -1.2178    2.4439 C   0  0  0  0  0  0  0  0  0  0  0  0
    7.2618   -4.0299    0.7264 C   0  0  0  0  0  0  0  0  0  0  0  0
   -0.3893    0.1285    2.6755 C   0  0  0  0  0  0  0  0  0  0  0  0
   -0.5534   -1.4745    4.9142 O   0  0  0  0  0  0  0  0  0  0  0  0
   -2.5693    0.0602    4.2242 O   0  5  0  0  0  0  0  0  0  0  0  0
   -2.0368   -1.9675    2.8034 O   0  5  0  0  0  0  0  0  0  0  0  0
    9.5802   -3.1095   -0.6276 F   0  0  0  0  0  0  0  0  0  0  0  0
   -0.0536    1.1397    3.5184 F   0  0  0  0  0  0  0  0  0  0  0  0
   -1.3732    0.6080    1.8711 F   0  0  0  0  0  0  0  0  0  0  0  0
   -1.3350   -0.8845    3.7777 P   0  0  0  0  0  0  0  0  0  0  0  0
    8.5833   -1.0400    4.7617 Cl  0  0  0  0  0  0  0  0  0  0  0  0
   11.1800   -0.0919    3.0795 Cl  0  0  0  0  0  0  0  0  0  0  0  0
    5.1939   -2.7615   -3.2436 H   0  0  0  0  0  0  0  0  0  0  0  0
    3.2823   -1.7450   -2.0604 H   0  0  0  0  0  0  0  0  0  0  0  0
    1.5016   -2.0306   -0.9763 H   0  0  0  0  0  0  0  0  0  0  0  0
    4.0804   -1.0929    2.3549 H   0  0  0  0  0  0  0  0  0  0  0  0
    7.0329   -3.8178   -1.9703 H   0  0  0  0  0  0  0  0  0  0  0  0
   -0.3977   -1.0193    0.2146 H   0  0  0  0  0  0  0  0  0  0  0  0
    2.1762   -0.0829    3.5395 H   0  0  0  0  0  0  0  0  0  0  0  0
    5.0485   -2.8398    1.7177 H   0  0  0  0  0  0  0  0  0  0  0  0
    7.1398   -2.8614    3.1701 H   0  0  0  0  0  0  0  0  0  0  0  0
   11.1218   -1.4133    0.5827 H   0  0  0  0  0  0  0  0  0  0  0  0
    6.8568   -4.6678    1.5316 H   0  0  0  0  0  0  0  0  0  0  0  0
    7.8198   -4.7377    0.0883 H   0  0  0  0  0  0  0  0  0  0  0  0
  1  2  1  0  0  0  0
  1  5  2  0  0  0  0
  2 12  2  0  0  0  0
  3  6  1  0  0  0  0
  3 11  2  0  0  0  0
  4  7  2  0  0  0  0
  4 11  1  0  0  0  0
  5 14  1  0  0  0  0
  6 13  2  0  0  0  0
  7 13  1  0  0  0  0
  8 12  1  0  0  0  0
  8 14  2  0  0  0  0
  9 15  1  0  0  0  0
  9 17  2  0  0  0  0
 10 16  1  0  0  0  0
 10 18  2  0  0  0  0
 11 12  1  0  0  0  0
 13 20  1  0  0  0  0
 14 19  1  0  0  0  0
 15 16  2  0  0  0  0
 15 19  1  0  0  0  0
 16 24  1  0  0  0  0
 17 18  1  0  0  0  0
 17 28  1  0  0  0  0
 18 29  1  0  0  0  0
 20 25  1  0  0  0  0
 20 26  1  0  0  0  0
 20 27  1  0  0  0  0
 21 27  2  0  0  0  0
 22 27  1  0  0  0  0
 23 27  1  0  0  0  0
  1 30  1  0  0  0  0
  2 31  1  0  0  0  0
  3 32  1  0  0  0  0
  4 33  1  0  0  0  0
  5 34  1  0  0  0  0
  6 35  1  0  0  0  0
  7 36  1  0  0  0  0
  8 37  1  0  0  0  0
  9 38  1  0  0  0  0
 10 39  1  0  0  0  0
 19 40  1  0  0  0  0
 19 41  1  0  0  0  0
M  CHG  2  22  -1  23  -1
M  END
> <Molecule Name>
cmp_5

> <mmff94s_NoEstat>
40.78

> <Ki_microM>
5.6

$$$$
cmp_6
  -OEChem-07021816513D

 41 43  0     0  0  0  0  0  0999 V2000
    5.1606   -2.7783   -2.1580 C   0  0  0  0  0  0  0  0  0  0  0  0
    4.0822   -2.2047   -1.4845 C   0  0  0  0  0  0  0  0  0  0  0  0
    2.2433   -0.5489    0.0461 C   0  0  0  0  0  0  0  0  0  0  0  0
    2.5202   -2.1393    1.8436 C   0  0  0  0  0  0  0  0  0  0  0  0
    6.1964   -3.3730   -1.4374 C   0  0  0  0  0  0  0  0  0  0  0  0
    1.1647    0.0244    0.7195 C   0  0  0  0  0  0  0  0  0  0  0  0
    1.4416   -1.5659    2.5171 C   0  0  0  0  0  0  0  0  0  0  0  0
    5.0754   -2.8203    0.6302 C   0  0  0  0  0  0  0  0  0  0  0  0
    7.8518   -6.2548   -0.2493 C   0  0  0  0  0  0  0  0  0  0  0  0
    6.4746   -7.6215    1.7553 C   0  0  0  0  0  0  0  0  0  0  0  0
    2.9210   -1.6309    0.6081 C   0  0  0  0  0  0  0  0  0  0  0  0
    4.0396   -2.2257   -0.0904 C   0  0  0  0  0  0  0  0  0  0  0  0
    0.7638   -0.4840    1.9550 C   0  0  0  0  0  0  0  0  0  0  0  0
    6.1538   -3.3940   -0.0434 C   0  0  0  0  0  0  0  0  0  0  0  0
    7.1988   -5.5437    0.7575 C   0  0  0  0  0  0  0  0  0  0  0  0
    7.8161   -7.6492   -0.2538 C   0  0  0  0  0  0  0  0  0  0  0  0
    6.5102   -6.2271    1.7598 C   0  0  0  0  0  0  0  0  0  0  0  0
    7.1275   -8.3326    0.7484 C   0  0  0  0  0  0  0  0  0  0  0  0
    7.2618   -4.0299    0.7264 C   0  0  0  0  0  0  0  0  0  0  0  0
   -0.3895    0.1289    2.6748 C   0  0  0  0  0  0  0  0  0  0  0  0
   -2.1512   -1.9903    2.7949 O   0  0  0  0  0  0  0  0  0  0  0  0
   -2.9894    0.4637    3.2080 O   0  5  0  0  0  0  0  0  0  0  0  0
   -2.3185   -0.2185    0.8631 O   0  5  0  0  0  0  0  0  0  0  0  0
   -0.3166    0.0454    4.0289 F   0  0  0  0  0  0  0  0  0  0  0  0
   -0.6147    1.4357    2.3809 F   0  0  0  0  0  0  0  0  0  0  0  0
   -2.0059   -0.5462    2.4154 P   0  0  0  0  0  0  0  0  0  0  0  0
    8.6451   -8.4734   -1.5277 Cl  0  0  0  0  0  0  0  0  0  0  0  0
    5.6917   -5.3805    3.0218 Cl  0  0  0  0  0  0  0  0  0  0  0  0
    7.0451  -10.0589    0.7958 Cl  0  0  0  0  0  0  0  0  0  0  0  0
    5.1939   -2.7615   -3.2436 H   0  0  0  0  0  0  0  0  0  0  0  0
    3.2823   -1.7450   -2.0604 H   0  0  0  0  0  0  0  0  0  0  0  0
    2.5433   -0.1417   -0.9165 H   0  0  0  0  0  0  0  0  0  0  0  0
    3.0387   -2.9818    2.2951 H   0  0  0  0  0  0  0  0  0  0  0  0
    7.0329   -3.8178   -1.9703 H   0  0  0  0  0  0  0  0  0  0  0  0
    0.6418    0.8663    0.2736 H   0  0  0  0  0  0  0  0  0  0  0  0
    1.1363   -1.9681    3.4796 H   0  0  0  0  0  0  0  0  0  0  0  0
    5.0485   -2.8398    1.7177 H   0  0  0  0  0  0  0  0  0  0  0  0
    8.3871   -5.7154   -1.0281 H   0  0  0  0  0  0  0  0  0  0  0  0
    5.9368   -8.1530    2.5375 H   0  0  0  0  0  0  0  0  0  0  0  0
    8.2413   -3.7218    0.3202 H   0  0  0  0  0  0  0  0  0  0  0  0
    7.2788   -3.6522    1.7638 H   0  0  0  0  0  0  0  0  0  0  0  0
  1  2  1  0  0  0  0
  1  5  2  0  0  0  0
  2 12  2  0  0  0  0
  3  6  1  0  0  0  0
  3 11  2  0  0  0  0
  4  7  2  0  0  0  0
  4 11  1  0  0  0  0
  5 14  1  0  0  0  0
  6 13  2  0  0  0  0
  7 13  1  0  0  0  0
  8 12  1  0  0  0  0
  8 14  2  0  0  0  0
  9 15  1  0  0  0  0
  9 16  2  0  0  0  0
 10 17  1  0  0  0  0
 10 18  2  0  0  0  0
 11 12  1  0  0  0  0
 13 20  1  0  0  0  0
 14 19  1  0  0  0  0
 15 17  2  0  0  0  0
 15 19  1  0  0  0  0
 16 18  1  0  0  0  0
 16 27  1  0  0  0  0
 17 28  1  0  0  0  0
 18 29  1  0  0  0  0
 20 24  1  0  0  0  0
 20 25  1  0  0  0  0
 20 26  1  0  0  0  0
 21 26  2  0  0  0  0
 22 26  1  0  0  0  0
 23 26  1  0  0  0  0
  1 30  1  0  0  0  0
  2 31  1  0  0  0  0
  3 32  1  0  0  0  0
  4 33  1  0  0  0  0
  5 34  1  0  0  0  0
  6 35  1  0  0  0  0
  7 36  1  0  0  0  0
  8 37  1  0  0  0  0
  9 38  1  0  0  0  0
 10 39  1  0  0  0  0
 19 40  1  0  0  0  0
 19 41  1  0  0  0  0
M  CHG  2  22  -1  23  -1
M  END
> <Molecule Name>
cmp_6

> <mmff94s_NoEstat>
44.15

> <Ki_microM>
4.7

$$$$
cmp_7
  -OEChem-07021816513D

 41 43  0     0  0  0  0  0  0999 V2000
    5.1606   -2.7783   -2.1580 C   0  0  0  0  0  0  0  0  0  0  0  0
    4.0822   -2.2047   -1.4845 C   0  0  0  0  0  0  0  0  0  0  0  0
    2.2433   -0.5489    0.0461 C   0  0  0  0  0  0  0  0  0  0  0  0
    2.5202   -2.1393    1.8436 C   0  0  0  0  0  0  0  0  0  0  0  0
    6.1964   -3.3730   -1.4374 C   0  0  0  0  0  0  0  0  0  0  0  0
    1.1647    0.0244    0.7195 C   0  0  0  0  0  0  0  0  0  0  0  0
    1.4416   -1.5659    2.5171 C   0  0  0  0  0  0  0  0  0  0  0  0
    5.0754   -2.8203    0.6302 C   0  0  0  0  0  0  0  0  0  0  0  0
    7.8534   -6.2500   -0.2516 C   0  0  0  0  0  0  0  0  0  0  0  0
    6.4796   -7.6264    1.7486 C   0  0  0  0  0  0  0  0  0  0  0  0
    2.9210   -1.6309    0.6081 C   0  0  0  0  0  0  0  0  0  0  0  0
    4.0396   -2.2257   -0.0904 C   0  0  0  0  0  0  0  0  0  0  0  0
    0.7638   -0.4840    1.9550 C   0  0  0  0  0  0  0  0  0  0  0  0
    6.1538   -3.3940   -0.0434 C   0  0  0  0  0  0  0  0  0  0  0  0
    7.1988   -5.5437    0.7575 C   0  0  0  0  0  0  0  0  0  0  0  0
    7.8211   -7.6445   -0.2607 C   0  0  0  0  0  0  0  0  0  0  0  0
    7.1342   -8.3327    0.7394 C   0  0  0  0  0  0  0  0  0  0  0  0
    6.5119   -6.2319    1.7576 C   0  0  0  0  0  0  0  0  0  0  0  0
    7.2618   -4.0299    0.7264 C   0  0  0  0  0  0  0  0  0  0  0  0
   -0.3895    0.1289    2.6748 C   0  0  0  0  0  0  0  0  0  0  0  0
    0.5222    2.6996    3.0853 O   0  0  0  0  0  0  0  0  0  0  0  0
   -1.5106    1.7712    4.4642 O   0  5  0  0  0  0  0  0  0  0  0  0
    0.8055    0.8662    4.9447 O   0  5  0  0  0  0  0  0  0  0  0  0
   -1.3332    0.6750    1.8643 F   0  0  0  0  0  0  0  0  0  0  0  0
   -1.0449   -0.7100    3.5184 F   0  0  0  0  0  0  0  0  0  0  0  0
   -0.0839    1.5004    3.7524 P   0  0  0  0  0  0  0  0  0  0  0  0
    8.6494   -8.4631   -1.5384 Cl  0  0  0  0  0  0  0  0  0  0  0  0
    7.0562  -10.0592    0.7802 Cl  0  0  0  0  0  0  0  0  0  0  0  0
    5.6064   -5.3144    3.1490 Br  0  0  0  0  0  0  0  0  0  0  0  0
    5.1939   -2.7615   -3.2436 H   0  0  0  0  0  0  0  0  0  0  0  0
    3.2823   -1.7450   -2.0604 H   0  0  0  0  0  0  0  0  0  0  0  0
    2.5433   -0.1417   -0.9165 H   0  0  0  0  0  0  0  0  0  0  0  0
    3.0387   -2.9818    2.2951 H   0  0  0  0  0  0  0  0  0  0  0  0
    7.0329   -3.8178   -1.9703 H   0  0  0  0  0  0  0  0  0  0  0  0
    0.6418    0.8663    0.2736 H   0  0  0  0  0  0  0  0  0  0  0  0
    1.1363   -1.9681    3.4796 H   0  0  0  0  0  0  0  0  0  0  0  0
    5.0485   -2.8398    1.7177 H   0  0  0  0  0  0  0  0  0  0  0  0
    8.3886   -5.7067   -1.0278 H   0  0  0  0  0  0  0  0  0  0  0  0
    5.9442   -8.1641    2.5282 H   0  0  0  0  0  0  0  0  0  0  0  0
    8.2413   -3.7218    0.3202 H   0  0  0  0  0  0  0  0  0  0  0  0
    7.2788   -3.6522    1.7638 H   0  0  0  0  0  0  0  0  0  0  0  0
  1  2  1  0  0  0  0
  1  5  2  0  0  0  0
  2 12  2  0  0  0  0
  3  6  1  0  0  0  0
  3 11  2  0  0  0  0
  4  7  2  0  0  0  0
  4 11  1  0  0  0  0
  5 14  1  0  0  0  0
  6 13  2  0  0  0  0
  7 13  1  0  0  0  0
  8 12  1  0  0  0  0
  8 14  2  0  0  0  0
  9 15  1  0  0  0  0
  9 16  2  0  0  0  0
 10 17  2  0  0  0  0
 10 18  1  0  0  0  0
 11 12  1  0  0  0  0
 13 20  1  0  0  0  0
 14 19  1  0  0  0  0
 15 18  2  0  0  0  0
 15 19  1  0  0  0  0
 16 17  1  0  0  0  0
 16 27  1  0  0  0  0
 17 28  1  0  0  0  0
 18 29  1  0  0  0  0
 20 24  1  0  0  0  0
 20 25  1  0  0  0  0
 20 26  1  0  0  0  0
 21 26  2  0  0  0  0
 22 26  1  0  0  0  0
 23 26  1  0  0  0  0
  1 30  1  0  0  0  0
  2 31  1  0  0  0  0
  3 32  1  0  0  0  0
  4 33  1  0  0  0  0
  5 34  1  0  0  0  0
  6 35  1  0  0  0  0
  7 36  1  0  0  0  0
  8 37  1  0  0  0  0
  9 38  1  0  0  0  0
 10 39  1  0  0  0  0
 19 40  1  0  0  0  0
 19 41  1  0  0  0  0
M  CHG  2  22  -1  23  -1
M  END
> <Molecule Name>
cmp_7

> <mmff94s_NoEstat>
45.59

> <Ki_microM>
3.7

$$$$
cmp_8
  -OEChem-07021816513D

 41 43  0     0  0  0  0  0  0999 V2000
    5.1544   -2.7728   -2.1628 C   0  0  0  0  0  0  0  0  0  0  0  0
    4.0777   -2.2016   -1.4846 C   0  0  0  0  0  0  0  0  0  0  0  0
    1.6282   -2.1056    0.3866 C   0  0  0  0  0  0  0  0  0  0  0  0
    3.1352   -0.5828    1.5032 C   0  0  0  0  0  0  0  0  0  0  0  0
    6.1929   -3.3683   -1.4470 C   0  0  0  0  0  0  0  0  0  0  0  0
    0.5497   -1.5323    1.0602 C   0  0  0  0  0  0  0  0  0  0  0  0
    2.0567   -0.0094    2.1769 C   0  0  0  0  0  0  0  0  0  0  0  0
    9.4077   -3.8973   -0.5762 C   0  0  0  0  0  0  0  0  0  0  0  0
   10.3429   -1.7833    0.9855 C   0  0  0  0  0  0  0  0  0  0  0  0
    2.9210   -1.6309    0.6081 C   0  0  0  0  0  0  0  0  0  0  0  0
    4.0396   -2.2257   -0.0904 C   0  0  0  0  0  0  0  0  0  0  0  0
    0.7640   -0.4842    1.9553 C   0  0  0  0  0  0  0  0  0  0  0  0
    6.1549   -3.3924   -0.0528 C   0  0  0  0  0  0  0  0  0  0  0  0
    8.6225   -3.3969    0.4624 C   0  0  0  0  0  0  0  0  0  0  0  0
    5.0782   -2.8211    0.6255 C   0  0  0  0  0  0  0  0  0  0  0  0
   10.6605   -3.3408   -0.8339 C   0  0  0  0  0  0  0  0  0  0  0  0
    9.0901   -2.3399    1.2433 C   0  0  0  0  0  0  0  0  0  0  0  0
   11.1281   -2.2837   -0.0531 C   0  0  0  0  0  0  0  0  0  0  0  0
    7.2677   -4.0293    0.7094 C   0  0  0  0  0  0  0  0  0  0  0  0
   -0.3891    0.1286    2.6758 C   0  0  0  0  0  0  0  0  0  0  0  0
    0.2586   -0.4046    5.3034 O   0  0  0  0  0  0  0  0  0  0  0  0
   -2.1917    0.2741    4.6469 O   0  5  0  0  0  0  0  0  0  0  0  0
   -1.3333   -2.0090    3.9653 O   0  5  0  0  0  0  0  0  0  0  0  0
    5.0470   -2.8470    1.9670 F   0  0  0  0  0  0  0  0  0  0  0  0
   -0.2273    1.4422    2.9827 F   0  0  0  0  0  0  0  0  0  0  0  0
   -1.5812    0.0272    2.0327 F   0  0  0  0  0  0  0  0  0  0  0  0
   -0.8251   -0.5047    4.2709 P   0  0  0  0  0  0  0  0  0  0  0  0
   11.5859   -4.0041   -2.1350 Cl  0  0  0  0  0  0  0  0  0  0  0  0
    8.1457   -1.6945    2.5359 Cl  0  0  0  0  0  0  0  0  0  0  0  0
   12.6722   -1.5538   -0.3216 Cl  0  0  0  0  0  0  0  0  0  0  0  0
    5.1841   -2.7539   -3.2485 H   0  0  0  0  0  0  0  0  0  0  0  0
    3.2763   -1.7412   -2.0577 H   0  0  0  0  0  0  0  0  0  0  0  0
    1.4450   -2.9224   -0.3075 H   0  0  0  0  0  0  0  0  0  0  0  0
    4.1370   -0.2012    1.6861 H   0  0  0  0  0  0  0  0  0  0  0  0
    7.0285   -3.8103   -1.9832 H   0  0  0  0  0  0  0  0  0  0  0  0
   -0.4539   -1.9093    0.8823 H   0  0  0  0  0  0  0  0  0  0  0  0
    2.2327    0.8072    2.8721 H   0  0  0  0  0  0  0  0  0  0  0  0
    9.0368   -4.7220   -1.1815 H   0  0  0  0  0  0  0  0  0  0  0  0
   10.7063   -0.9592    1.5956 H   0  0  0  0  0  0  0  0  0  0  0  0
    7.0559   -4.0078    1.7929 H   0  0  0  0  0  0  0  0  0  0  0  0
    7.3291   -5.1069    0.4765 H   0  0  0  0  0  0  0  0  0  0  0  0
  1  2  1  0  0  0  0
  1  5  2  0  0  0  0
  2 11  2  0  0  0  0
  3  6  1  0  0  0  0
  3 10  2  0  0  0  0
  4  7  2  0  0  0  0
  4 10  1  0  0  0  0
  5 13  1  0  0  0  0
  6 12  2  0  0  0  0
  7 12  1  0  0  0  0
  8 14  1  0  0  0  0
  8 16  2  0  0  0  0
  9 17  1  0  0  0  0
  9 18  2  0  0  0  0
 10 11  1  0  0  0  0
 11 15  1  0  0  0  0
 12 20  1  0  0  0  0
 13 15  2  0  0  0  0
 13 19  1  0  0  0  0
 14 17  2  0  0  0  0
 14 19  1  0  0  0  0
 15 24  1  0  0  0  0
 16 18  1  0  0  0  0
 16 28  1  0  0  0  0
 17 29  1  0  0  0  0
 18 30  1  0  0  0  0
 20 25  1  0  0  0  0
 20 26  1  0  0  0  0
 20 27  1  0  0  0  0
 21 27  2  0  0  0  0
 22 27  1  0  0  0  0
 23 27  1  0  0  0  0
  1 31  1  0  0  0  0
  2 32  1  0  0  0  0
  3 33  1  0  0  0  0
  4 34  1  0  0  0  0
  5 35  1  0  0  0  0
  6 36  1  0  0  0  0
  7 37  1  0  0  0  0
  8 38  1  0  0  0  0
  9 39  1  0  0  0  0
 19 40  1  0  0  0  0
 19 41  1  0  0  0  0
M  CHG  2  22  -1  23  -1
M  END
> <Molecule Name>
cmp_8

> <mmff94s_NoEstat>
42.56

> <Ki_microM>
2.4

$$$$
cmp_9
  -OEChem-07021816513D

 42 44  0     1  0  0  0  0  0999 V2000
    5.1544   -2.7728   -2.1628 C   0  0  0  0  0  0  0  0  0  0  0  0
    4.0777   -2.2016   -1.4846 C   0  0  0  0  0  0  0  0  0  0  0  0
    1.6282   -2.1056    0.3866 C   0  0  0  0  0  0  0  0  0  0  0  0
    3.1352   -0.5828    1.5032 C   0  0  0  0  0  0  0  0  0  0  0  0
    6.1929   -3.3683   -1.4470 C   0  0  0  0  0  0  0  0  0  0  0  0
    0.5497   -1.5323    1.0602 C   0  0  0  0  0  0  0  0  0  0  0  0
    2.0567   -0.0094    2.1769 C   0  0  0  0  0  0  0  0  0  0  0  0
    9.4077   -3.8973   -0.5762 C   0  0  0  0  0  0  0  0  0  0  0  0
   10.3429   -1.7833    0.9855 C   0  0  0  0  0  0  0  0  0  0  0  0
    2.9210   -1.6309    0.6081 C   0  0  0  0  0  0  0  0  0  0  0  0
    4.0396   -2.2257   -0.0904 C   0  0  0  0  0  0  0  0  0  0  0  0
    0.7640   -0.4842    1.9553 C   0  0  0  0  0  0  0  0  0  0  0  0
    6.1549   -3.3924   -0.0528 C   0  0  0  0  0  0  0  0  0  0  0  0
    8.6225   -3.3969    0.4624 C   0  0  0  0  0  0  0  0  0  0  0  0
    5.0782   -2.8211    0.6255 C   0  0  0  0  0  0  0  0  0  0  0  0
   10.6605   -3.3408   -0.8339 C   0  0  0  0  0  0  0  0  0  0  0  0
    9.0901   -2.3399    1.2433 C   0  0  0  0  0  0  0  0  0  0  0  0
   11.1281   -2.2837   -0.0531 C   0  0  0  0  0  0  0  0  0  0  0  0
    7.2677   -4.0293    0.7094 C   0  0  0  0  0  0  0  0  0  0  0  0
   -0.3891    0.1286    2.6758 C   0  0  2  0  0  0  0  0  0  0  0  0
    0.3711   -0.4271    5.2832 O   0  0  0  0  0  0  0  0  0  0  0  0
   -0.1693    1.5241    2.8997 O   0  0  0  0  0  0  0  0  0  0  0  0
   -2.1202    0.1992    4.7381 O   0  5  0  0  0  0  0  0  0  0  0  0
   -1.2406   -2.0615    4.0014 O   0  5  0  0  0  0  0  0  0  0  0  0
    5.0470   -2.8470    1.9670 F   0  0  0  0  0  0  0  0  0  0  0  0
   -0.7549   -0.5486    4.2994 P   0  0  0  0  0  0  0  0  0  0  0  0
   11.5859   -4.0041   -2.1350 Cl  0  0  0  0  0  0  0  0  0  0  0  0
    8.1457   -1.6945    2.5359 Cl  0  0  0  0  0  0  0  0  0  0  0  0
   12.6722   -1.5538   -0.3216 Cl  0  0  0  0  0  0  0  0  0  0  0  0
    5.1841   -2.7539   -3.2485 H   0  0  0  0  0  0  0  0  0  0  0  0
    3.2763   -1.7412   -2.0577 H   0  0  0  0  0  0  0  0  0  0  0  0
    1.4450   -2.9224   -0.3075 H   0  0  0  0  0  0  0  0  0  0  0  0
    4.1370   -0.2012    1.6861 H   0  0  0  0  0  0  0  0  0  0  0  0
    7.0285   -3.8103   -1.9832 H   0  0  0  0  0  0  0  0  0  0  0  0
   -0.4539   -1.9093    0.8823 H   0  0  0  0  0  0  0  0  0  0  0  0
    2.2327    0.8072    2.8721 H   0  0  0  0  0  0  0  0  0  0  0  0
    9.0368   -4.7220   -1.1815 H   0  0  0  0  0  0  0  0  0  0  0  0
   10.7063   -0.9592    1.5956 H   0  0  0  0  0  0  0  0  0  0  0  0
    7.0559   -4.0078    1.7929 H   0  0  0  0  0  0  0  0  0  0  0  0
    7.3291   -5.1069    0.4765 H   0  0  0  0  0  0  0  0  0  0  0  0
   -1.2985    0.0590    2.0583 H   0  0  0  0  0  0  0  0  0  0  0  0
   -0.0622    1.9538    2.0341 H   0  0  0  0  0  0  0  0  0  0  0  0
  1  2  1  0  0  0  0
  1  5  2  0  0  0  0
  2 11  2  0  0  0  0
  3  6  1  0  0  0  0
  3 10  2  0  0  0  0
  4  7  2  0  0  0  0
  4 10  1  0  0  0  0
  5 13  1  0  0  0  0
  6 12  2  0  0  0  0
  7 12  1  0  0  0  0
  8 14  1  0  0  0  0
  8 16  2  0  0  0  0
  9 17  1  0  0  0  0
  9 18  2  0  0  0  0
 10 11  1  0  0  0  0
 11 15  1  0  0  0  0
 12 20  1  0  0  0  0
 13 15  2  0  0  0  0
 13 19  1  0  0  0  0
 14 17  2  0  0  0  0
 14 19  1  0  0  0  0
 15 25  1  0  0  0  0
 16 18  1  0  0  0  0
 16 27  1  0  0  0  0
 17 28  1  0  0  0  0
 18 29  1  0  0  0  0
 20 22  1  0  0  0  0
 20 26  1  0  0  0  0
 21 26  2  0  0  0  0
 23 26  1  0  0  0  0
 24 26  1  0  0  0  0
  1 30  1  0  0  0  0
  2 31  1  0  0  0  0
  3 32  1  0  0  0  0
  4 33  1  0  0  0  0
  5 34  1  0  0  0  0
  6 35  1  0  0  0  0
  7 36  1  0  0  0  0
  8 37  1  0  0  0  0
  9 38  1  0  0  0  0
 19 39  1  0  0  0  0
 19 40  1  0  0  0  0
 20 41  1  0  0  0  0
 22 42  1  0  0  0  0
M  CHG  2  23  -1  24  -1
M  END
> <Molecule Name>
cmp_9

> <mmff94s_NoEstat>
46.18

> <Ki_microM>
3.9

$$$$
cmp_10
  -OEChem-07021816513D

 42 44  0     1  0  0  0  0  0999 V2000
    5.1544   -2.7728   -2.1628 C   0  0  0  0  0  0  0  0  0  0  0  0
    4.0777   -2.2016   -1.4846 C   0  0  0  0  0  0  0  0  0  0  0  0
    1.6282   -2.1056    0.3866 C   0  0  0  0  0  0  0  0  0  0  0  0
    3.1352   -0.5828    1.5032 C   0  0  0  0  0  0  0  0  0  0  0  0
    6.1929   -3.3683   -1.4470 C   0  0  0  0  0  0  0  0  0  0  0  0
    0.5497   -1.5323    1.0602 C   0  0  0  0  0  0  0  0  0  0  0  0
    2.0567   -0.0094    2.1769 C   0  0  0  0  0  0  0  0  0  0  0  0
    9.4077   -3.8973   -0.5762 C   0  0  0  0  0  0  0  0  0  0  0  0
   10.3429   -1.7833    0.9855 C   0  0  0  0  0  0  0  0  0  0  0  0
    2.9210   -1.6309    0.6081 C   0  0  0  0  0  0  0  0  0  0  0  0
    4.0396   -2.2257   -0.0904 C   0  0  0  0  0  0  0  0  0  0  0  0
    0.7640   -0.4842    1.9553 C   0  0  0  0  0  0  0  0  0  0  0  0
    6.1549   -3.3924   -0.0528 C   0  0  0  0  0  0  0  0  0  0  0  0
    8.6225   -3.3969    0.4624 C   0  0  0  0  0  0  0  0  0  0  0  0
    5.0782   -2.8211    0.6255 C   0  0  0  0  0  0  0  0  0  0  0  0
   10.6605   -3.3408   -0.8339 C   0  0  0  0  0  0  0  0  0  0  0  0
    9.0901   -2.3399    1.2433 C   0  0  0  0  0  0  0  0  0  0  0  0
   11.1281   -2.2837   -0.0531 C   0  0  0  0  0  0  0  0  0  0  0  0
    7.2677   -4.0293    0.7094 C   0  0  0  0  0  0  0  0  0  0  0  0
   -0.3891    0.1286    2.6758 C   0  0  1  0  0  0  0  0  0  0  0  0
   -1.2696   -2.1024    4.0660 O   0  0  0  0  0  0  0  0  0  0  0  0
   -1.5643    0.1146    1.8606 O   0  0  0  0  0  0  0  0  0  0  0  0
    0.4043   -0.4204    5.1905 O   0  5  0  0  0  0  0  0  0  0  0  0
   -1.9989    0.3040    4.8337 O   0  5  0  0  0  0  0  0  0  0  0  0
    5.0470   -2.8470    1.9670 F   0  0  0  0  0  0  0  0  0  0  0  0
   -0.8628   -0.6662    4.2160 P   0  0  0  0  0  0  0  0  0  0  0  0
   11.5859   -4.0041   -2.1350 Cl  0  0  0  0  0  0  0  0  0  0  0  0
    8.1457   -1.6945    2.5359 Cl  0  0  0  0  0  0  0  0  0  0  0  0
   12.6722   -1.5538   -0.3216 Cl  0  0  0  0  0  0  0  0  0  0  0  0
    5.1841   -2.7539   -3.2485 H   0  0  0  0  0  0  0  0  0  0  0  0
    3.2763   -1.7412   -2.0577 H   0  0  0  0  0  0  0  0  0  0  0  0
    1.4450   -2.9224   -0.3075 H   0  0  0  0  0  0  0  0  0  0  0  0
    4.1370   -0.2012    1.6861 H   0  0  0  0  0  0  0  0  0  0  0  0
    7.0285   -3.8103   -1.9832 H   0  0  0  0  0  0  0  0  0  0  0  0
   -0.4539   -1.9093    0.8823 H   0  0  0  0  0  0  0  0  0  0  0  0
    2.2327    0.8072    2.8721 H   0  0  0  0  0  0  0  0  0  0  0  0
    9.0368   -4.7220   -1.1815 H   0  0  0  0  0  0  0  0  0  0  0  0
   10.7063   -0.9592    1.5956 H   0  0  0  0  0  0  0  0  0  0  0  0
    7.0559   -4.0078    1.7929 H   0  0  0  0  0  0  0  0  0  0  0  0
    7.3291   -5.1069    0.4765 H   0  0  0  0  0  0  0  0  0  0  0  0
   -0.1802    1.1893    2.8868 H   0  0  0  0  0  0  0  0  0  0  0  0
   -1.3765    0.6244    1.0543 H   0  0  0  0  0  0  0  0  0  0  0  0
  1  2  1  0  0  0  0
  1  5  2  0  0  0  0
  2 11  2  0  0  0  0
  3  6  1  0  0  0  0
  3 10  2  0  0  0  0
  4  7  2  0  0  0  0
  4 10  1  0  0  0  0
  5 13  1  0  0  0  0
  6 12  2  0  0  0  0
  7 12  1  0  0  0  0
  8 14  1  0  0  0  0
  8 16  2  0  0  0  0
  9 17  1  0  0  0  0
  9 18  2  0  0  0  0
 10 11  1  0  0  0  0
 11 15  1  0  0  0  0
 12 20  1  0  0  0  0
 13 15  2  0  0  0  0
 13 19  1  0  0  0  0
 14 17  2  0  0  0  0
 14 19  1  0  0  0  0
 15 25  1  0  0  0  0
 16 18  1  0  0  0  0
 16 27  1  0  0  0  0
 17 28  1  0  0  0  0
 18 29  1  0  0  0  0
 20 22  1  0  0  0  0
 20 26  1  0  0  0  0
 21 26  2  0  0  0  0
 23 26  1  0  0  0  0
 24 26  1  0  0  0  0
  1 30  1  0  0  0  0
  2 31  1  0  0  0  0
  3 32  1  0  0  0  0
  4 33  1  0  0  0  0
  5 34  1  0  0  0  0
  6 35  1  0  0  0  0
  7 36  1  0  0  0  0
  8 37  1  0  0  0  0
  9 38  1  0  0  0  0
 19 39  1  0  0  0  0
 19 40  1  0  0  0  0
 20 41  1  0  0  0  0
 22 42  1  0  0  0  0
M  CHG  2  23  -1  24  -1
M  END
> <Molecule Name>
cmp_10

> <mmff94s_NoEstat>
46.23

> <Ki_microM>
0.11

$$$$
