cmp_1
  -OEChem-07021816493D

 29 31  0     0  0  0  0  0  0999 V2000
   -2.5983    6.4768    1.8053 C   0  0  0  0  0  0  0  0  0  0  0  0
   -3.9054    4.9476    3.1433 C   0  0  0  0  0  0  0  0  0  0  0  0
   -2.5002    5.5141    0.8008 C   0  0  0  0  0  0  0  0  0  0  0  0
   -3.8073    3.9849    2.1387 C   0  0  0  0  0  0  0  0  0  0  0  0
   -2.7409    4.6138   -3.4032 C   0  0  0  0  0  0  0  0  0  0  0  0
   -2.7106    0.2754   -3.0669 C   0  0  0  0  0  0  0  0  0  0  0  0
   -3.3009    6.1936    2.9766 C   0  0  0  0  0  0  0  0  0  0  0  0
   -2.8074    2.2321   -2.2271 C   0  0  0  0  0  0  0  0  0  0  0  0
   -3.1047    4.2681    0.9675 C   0  0  0  0  0  0  0  0  0  0  0  0
   -2.6956    2.4111   -3.5967 C   0  0  0  0  0  0  0  0  0  0  0  0
   -2.8880    3.3814   -1.4471 C   0  0  0  0  0  0  0  0  0  0  0  0
   -3.4031    7.1974    4.0239 C   0  0  0  0  0  0  0  0  0  0  0  0
   -2.6557    3.5749   -4.2625 N   0  0  0  0  0  0  0  0  0  0  0  0
   -2.8535    4.5926   -2.0531 N   0  0  0  0  0  0  0  0  0  0  0  0
   -2.8154    0.8968   -1.9108 N   0  0  0  0  0  0  0  0  0  0  0  0
   -2.6347    1.1502   -4.1181 N   0  0  0  0  0  0  0  0  0  0  0  0
   -2.7822    8.4242    3.8080 N   0  0  0  0  0  0  0  0  0  0  0  0
   -3.0054    3.2938   -0.0492 N   0  0  0  0  0  0  0  0  0  0  0  0
   -4.0089    6.9674    5.0854 O   0  0  0  0  0  0  0  0  0  0  0  0
   -2.1234    7.4445    1.6649 H   0  0  0  0  0  0  0  0  0  0  0  0
   -4.4553    4.7163    4.0519 H   0  0  0  0  0  0  0  0  0  0  0  0
   -1.9503    5.7453   -0.1079 H   0  0  0  0  0  0  0  0  0  0  0  0
   -4.2821    3.0171    2.2789 H   0  0  0  0  0  0  0  0  0  0  0  0
   -2.7163    5.5999   -3.8546 H   0  0  0  0  0  0  0  0  0  0  0  0
   -2.6838   -0.7952   -3.2119 H   0  0  0  0  0  0  0  0  0  0  0  0
   -2.5495    0.9075   -5.0961 H   0  0  0  0  0  0  0  0  0  0  0  0
   -2.2832    8.5813    2.9391 H   0  0  0  0  0  0  0  0  0  0  0  0
   -2.8177    9.1650    4.5008 H   0  0  0  0  0  0  0  0  0  0  0  0
   -3.0232    2.3393    0.3035 H   0  0  0  0  0  0  0  0  0  0  0  0
  1  3  1  0  0  0  0
  1  7  2  0  0  0  0
  2  4  2  0  0  0  0
  2  7  1  0  0  0  0
  3  9  2  0  0  0  0
  4  9  1  0  0  0  0
  5 13  1  0  0  0  0
  5 14  2  0  0  0  0
  6 15  2  0  0  0  0
  6 16  1  0  0  0  0
  7 12  1  0  0  0  0
  8 10  1  0  0  0  0
  8 11  2  0  0  0  0
  8 15  1  0  0  0  0
  9 18  1  0  0  0  0
 10 13  2  0  0  0  0
 10 16  1  0  0  0  0
 11 14  1  0  0  0  0
 11 18  1  0  0  0  0
 12 17  1  0  0  0  0
 12 19  2  0  0  0  0
  1 20  1  0  0  0  0
  2 21  1  0  0  0  0
  3 22  1  0  0  0  0
  4 23  1  0  0  0  0
  5 24  1  0  0  0  0
  6 25  1  0  0  0  0
 16 26  1  0  0  0  0
 17 27  1  0  0  0  0
 17 28  1  0  0  0  0
 18 29  1  0  0  0  0
M  END
> <Molecule Name>
cmp_1

> <mmff94s_NoEstat>
57.68

> <IC50_nM>
60

$$$$
cmp_2
  -OEChem-07021816493D

 24 26  0     0  0  0  0  0  0999 V2000
   -0.0254    1.6179   -0.0049 C   0  0  0  0  0  0  0  0  0  0  0  0
   -1.3669   -0.2170    0.7813 C   0  0  0  0  0  0  0  0  0  0  0  0
   -0.9990    2.4710    0.4891 C   0  0  0  0  0  0  0  0  0  0  0  0
   -2.2804    0.7183    1.2403 C   0  0  0  0  0  0  0  0  0  0  0  0
    2.0913   -0.8314   -0.0295 C   0  0  0  0  0  0  0  0  0  0  0  0
   -0.2204    0.2497    0.1479 C   0  0  0  0  0  0  0  0  0  0  0  0
    0.7629   -0.6820   -0.3485 C   0  0  0  0  0  0  0  0  0  0  0  0
    1.6934   -2.3294   -1.5012 C   0  0  0  0  0  0  0  0  0  0  0  0
    1.6720   -3.3810   -2.4471 C   0  0  0  0  0  0  0  0  0  0  0  0
    0.5340   -3.6676   -3.0899 C   0  0  0  0  0  0  0  0  0  0  0  0
   -0.6499   -2.8403   -2.7552 C   0  0  0  0  0  0  0  0  0  0  0  0
   -2.1255    2.0549    1.1099 N   0  0  0  0  0  0  0  0  0  0  0  0
    2.6619   -1.8522   -0.7459 N   0  3  0  0  0  0  0  0  0  0  0  0
   -0.6890   -1.8665   -1.8999 N   0  0  0  0  0  0  0  0  0  0  0  0
    0.5099   -1.6427   -1.2918 N   0  0  0  0  0  0  0  0  0  0  0  0
    0.8564    2.0198   -0.4936 H   0  0  0  0  0  0  0  0  0  0  0  0
   -1.5542   -1.2770    0.9191 H   0  0  0  0  0  0  0  0  0  0  0  0
   -0.8944    3.5469    0.3949 H   0  0  0  0  0  0  0  0  0  0  0  0
   -3.1908    0.4059    1.7412 H   0  0  0  0  0  0  0  0  0  0  0  0
    2.6706   -0.2576    0.6802 H   0  0  0  0  0  0  0  0  0  0  0  0
    2.5773   -3.9447   -2.6420 H   0  0  0  0  0  0  0  0  0  0  0  0
    0.4463   -4.4571   -3.8236 H   0  0  0  0  0  0  0  0  0  0  0  0
   -1.5701   -3.1024   -3.3028 H   0  0  0  0  0  0  0  0  0  0  0  0
    3.6102   -2.1671   -0.7040 H   0  0  0  0  0  0  0  0  0  0  0  0
  1  3  2  0  0  0  0
  1  6  1  0  0  0  0
  2  4  1  0  0  0  0
  2  6  2  0  0  0  0
  3 12  1  0  0  0  0
  4 12  2  0  0  0  0
  5  7  2  0  0  0  0
  5 13  1  0  0  0  0
  6  7  1  0  0  0  0
  7 15  1  0  0  0  0
  8  9  1  0  0  0  0
  8 13  2  0  0  0  0
  8 15  1  0  0  0  0
  9 10  2  0  0  0  0
 10 11  1  0  0  0  0
 11 14  2  0  0  0  0
 14 15  1  0  0  0  0
  1 16  1  0  0  0  0
  2 17  1  0  0  0  0
  3 18  1  0  0  0  0
  4 19  1  0  0  0  0
  5 20  1  0  0  0  0
  9 21  1  0  0  0  0
 10 22  1  0  0  0  0
 11 23  1  0  0  0  0
 13 24  1  0  0  0  0
M  CHG  1  13   1
M  END
> <Molecule Name>
cmp_2

> <mmff94s_NoEstat>
36.36

> <IC50_nM>
1800

$$$$
cmp_3
  -OEChem-07021816493D

 34 37  0     0  0  0  0  0  0999 V2000
    7.6945   -3.6646    2.5407 C   0  0  0  0  0  0  0  0  0  0  0  0
    7.4809   -2.5112    1.7860 C   0  0  0  0  0  0  0  0  0  0  0  0
    6.7131   -4.1106    3.4260 C   0  0  0  0  0  0  0  0  0  0  0  0
    6.2860   -1.8036    1.9167 C   0  0  0  0  0  0  0  0  0  0  0  0
    5.5182   -3.4029    3.5567 C   0  0  0  0  0  0  0  0  0  0  0  0
    0.8725   -0.3471    0.5479 C   0  0  0  0  0  0  0  0  0  0  0  0
    0.9878   -0.0537    1.9107 C   0  0  0  0  0  0  0  0  0  0  0  0
    0.4339   -1.4989   -2.0815 C   0  0  0  0  0  0  0  0  0  0  0  0
    2.8248   -1.4960   -2.3425 C   0  0  0  0  0  0  0  0  0  0  0  0
    2.9942   -1.5392    0.5550 C   0  0  0  0  0  0  0  0  0  0  0  0
    0.3403   -1.7691   -3.4372 C   0  0  0  0  0  0  0  0  0  0  0  0
    2.6241   -1.7665   -3.6865 C   0  0  0  0  0  0  0  0  0  0  0  0
    3.1242   -1.2526    1.9242 C   0  0  0  0  0  0  0  0  0  0  0  0
    5.3046   -2.2495    2.8020 C   0  0  0  0  0  0  0  0  0  0  0  0
    1.8575   -1.0770   -0.1202 C   0  0  0  0  0  0  0  0  0  0  0  0
    1.7034   -1.3612   -1.5315 C   0  0  0  0  0  0  0  0  0  0  0  0
    2.1285   -0.5238    2.5651 C   0  0  0  0  0  0  0  0  0  0  0  0
    4.0702   -1.5186    2.9374 C   0  0  0  0  0  0  0  0  0  0  0  0
    1.4065   -1.9070   -4.2569 N   0  0  0  0  0  0  0  0  0  0  0  0
    3.7190   -1.0102    4.1207 N   0  0  0  0  0  0  0  0  0  0  0  0
    2.5420   -0.4150    3.8654 N   0  0  0  0  0  0  0  0  0  0  0  0
    8.6244   -4.2164    2.4383 H   0  0  0  0  0  0  0  0  0  0  0  0
    8.2443   -2.1646    1.0957 H   0  0  0  0  0  0  0  0  0  0  0  0
    6.8791   -5.0094    4.0125 H   0  0  0  0  0  0  0  0  0  0  0  0
    6.1344   -0.9062    1.3214 H   0  0  0  0  0  0  0  0  0  0  0  0
    4.7630   -3.7637    4.2513 H   0  0  0  0  0  0  0  0  0  0  0  0
   -0.0072    0.0076    0.0139 H   0  0  0  0  0  0  0  0  0  0  0  0
    0.2239    0.5129    2.4313 H   0  0  0  0  0  0  0  0  0  0  0  0
   -0.4647   -1.3994   -1.4810 H   0  0  0  0  0  0  0  0  0  0  0  0
    3.8310   -1.3957   -1.9485 H   0  0  0  0  0  0  0  0  0  0  0  0
    3.7617   -2.1072    0.0359 H   0  0  0  0  0  0  0  0  0  0  0  0
   -0.6273   -1.8837   -3.9150 H   0  0  0  0  0  0  0  0  0  0  0  0
    3.4659   -1.8819   -4.3611 H   0  0  0  0  0  0  0  0  0  0  0  0
    2.0673    0.0517    4.6281 H   0  0  0  0  0  0  0  0  0  0  0  0
  1  2  1  0  0  0  0
  1  3  2  0  0  0  0
  2  4  2  0  0  0  0
  3  5  1  0  0  0  0
  4 14  1  0  0  0  0
  5 14  2  0  0  0  0
  6  7  2  0  0  0  0
  6 15  1  0  0  0  0
  7 17  1  0  0  0  0
  8 11  1  0  0  0  0
  8 16  2  0  0  0  0
  9 12  2  0  0  0  0
  9 16  1  0  0  0  0
 10 13  1  0  0  0  0
 10 15  2  0  0  0  0
 11 19  2  0  0  0  0
 12 19  1  0  0  0  0
 13 17  2  0  0  0  0
 13 18  1  0  0  0  0
 14 18  1  0  0  0  0
 15 16  1  0  0  0  0
 17 21  1  0  0  0  0
 18 20  2  0  0  0  0
 20 21  1  0  0  0  0
  1 22  1  0  0  0  0
  2 23  1  0  0  0  0
  3 24  1  0  0  0  0
  4 25  1  0  0  0  0
  5 26  1  0  0  0  0
  6 27  1  0  0  0  0
  7 28  1  0  0  0  0
  8 29  1  0  0  0  0
  9 30  1  0  0  0  0
 10 31  1  0  0  0  0
 11 32  1  0  0  0  0
 12 33  1  0  0  0  0
 21 34  1  0  0  0  0
M  END
> <Molecule Name>
cmp_3

> <mmff94s_NoEstat>
64.02

> <IC50_nM>
3800

$$$$
cmp_4
  -OEChem-07021816493D

 30 33  0     0  0  0  0  0  0999 V2000
   -0.2461    3.2099   -1.1374 C   0  0  0  0  0  0  0  0  0  0  0  0
    0.3238    2.0394   -0.6342 C   0  0  0  0  0  0  0  0  0  0  0  0
   -1.8414    0.9109   -0.6495 C   0  0  0  0  0  0  0  0  0  0  0  0
   -2.0171   -2.3112    2.1805 C   0  0  0  0  0  0  0  0  0  0  0  0
    2.0370   -3.7939    1.6317 C   0  0  0  0  0  0  0  0  0  0  0  0
   -1.6050    3.1934   -1.3825 C   0  0  0  0  0  0  0  0  0  0  0  0
   -2.4016    2.0717   -1.1477 C   0  0  0  0  0  0  0  0  0  0  0  0
    0.4898   -2.3656    1.3013 C   0  0  0  0  0  0  0  0  0  0  0  0
   -0.4663    0.9001   -0.3923 C   0  0  0  0  0  0  0  0  0  0  0  0
   -0.0618   -3.3427    2.1146 C   0  0  0  0  0  0  0  0  0  0  0  0
   -0.3378   -1.3073    0.9398 C   0  0  0  0  0  0  0  0  0  0  0  0
   -2.4633    4.2616   -1.9035 C   0  0  0  0  0  0  0  0  0  0  0  0
   -3.8189    2.3580   -1.5061 C   0  0  0  0  0  0  0  0  0  0  0  0
   -1.3126   -3.3858    2.5974 N   0  0  0  0  0  0  0  0  0  0  0  0
   -1.6149   -1.2857    1.3915 N   0  0  0  0  0  0  0  0  0  0  0  0
    1.7978   -2.6593    1.0080 N   0  0  0  0  0  0  0  0  0  0  0  0
    0.9408   -4.2481    2.3158 N   0  0  0  0  0  0  0  0  0  0  0  0
   -3.7472    3.7339   -1.9605 N   0  0  0  0  0  0  0  0  0  0  0  0
    0.1394   -0.2699    0.1183 N   0  0  0  0  0  0  0  0  0  0  0  0
   -2.0788    5.3741   -2.2112 O   0  0  0  0  0  0  0  0  0  0  0  0
    0.3598    4.0884   -1.3255 H   0  0  0  0  0  0  0  0  0  0  0  0
    1.3916    2.0166   -0.4281 H   0  0  0  0  0  0  0  0  0  0  0  0
   -2.4547    0.0348   -0.4638 H   0  0  0  0  0  0  0  0  0  0  0  0
   -3.0450   -2.2614    2.5236 H   0  0  0  0  0  0  0  0  0  0  0  0
    2.9728   -4.3346    1.6290 H   0  0  0  0  0  0  0  0  0  0  0  0
   -4.1771    1.7340   -2.3284 H   0  0  0  0  0  0  0  0  0  0  0  0
   -4.4873    2.3062   -0.6430 H   0  0  0  0  0  0  0  0  0  0  0  0
    0.8850   -5.0946    2.8662 H   0  0  0  0  0  0  0  0  0  0  0  0
   -4.5531    4.2577   -2.2869 H   0  0  0  0  0  0  0  0  0  0  0  0
    1.1078   -0.3799   -0.1642 H   0  0  0  0  0  0  0  0  0  0  0  0
  1  2  1  0  0  0  0
  1  6  2  0  0  0  0
  2  9  2  0  0  0  0
  3  7  2  0  0  0  0
  3  9  1  0  0  0  0
  4 14  1  0  0  0  0
  4 15  2  0  0  0  0
  5 16  2  0  0  0  0
  5 17  1  0  0  0  0
  6  7  1  0  0  0  0
  6 12  1  0  0  0  0
  7 13  1  0  0  0  0
  8 10  1  0  0  0  0
  8 11  2  0  0  0  0
  8 16  1  0  0  0  0
  9 19  1  0  0  0  0
 10 14  2  0  0  0  0
 10 17  1  0  0  0  0
 11 15  1  0  0  0  0
 11 19  1  0  0  0  0
 12 18  1  0  0  0  0
 12 20  2  0  0  0  0
 13 18  1  0  0  0  0
  1 21  1  0  0  0  0
  2 22  1  0  0  0  0
  3 23  1  0  0  0  0
  4 24  1  0  0  0  0
  5 25  1  0  0  0  0
 13 26  1  0  0  0  0
 13 27  1  0  0  0  0
 17 28  1  0  0  0  0
 18 29  1  0  0  0  0
 19 30  1  0  0  0  0
M  END
> <Molecule Name>
cmp_4

> <mmff94s_NoEstat>
55.80

> <IC50_nM>
23

$$$$
cmp_5
  -OEChem-07021816493D

 33 35  0     0  0  0  0  0  0999 V2000
   -0.7369    1.7554   -0.9357 C   0  0  0  0  0  0  0  0  0  0  0  0
    0.0349    2.7479   -0.3309 C   0  0  0  0  0  0  0  0  0  0  0  0
    3.7424    4.4209    2.1365 C   0  0  0  0  0  0  0  0  0  0  0  0
    1.2141    1.0876    1.0142 C   0  0  0  0  0  0  0  0  0  0  0  0
    4.7214    4.3726    3.1079 C   0  0  0  0  0  0  0  0  0  0  0  0
    3.7814    2.5218    4.0343 C   0  0  0  0  0  0  0  0  0  0  0  0
   -0.5077    0.4505   -0.5440 C   0  0  0  0  0  0  0  0  0  0  0  0
    0.4481    0.1024    0.4140 C   0  0  0  0  0  0  0  0  0  0  0  0
    1.0019    2.4175    0.6355 C   0  0  0  0  0  0  0  0  0  0  0  0
    2.7850    3.4295    2.2039 C   0  0  0  0  0  0  0  0  0  0  0  0
   -1.1655   -0.7728   -1.0094 C   0  0  0  0  0  0  0  0  0  0  0  0
    0.4605   -1.3898    0.6233 C   0  0  0  0  0  0  0  0  0  0  0  0
    0.0713   -1.7635    2.0544 C   0  0  0  0  0  0  0  0  0  0  0  0
    1.8066   -2.0040    0.2360 C   0  0  0  0  0  0  0  0  0  0  0  0
    4.7715    3.4336    4.0755 N   0  0  0  0  0  0  0  0  0  0  0  0
    2.7739    2.4606    3.1427 N   0  0  0  0  0  0  0  0  0  0  0  0
   -0.5792   -1.8193   -0.3116 N   0  0  0  0  0  0  0  0  0  0  0  0
    1.7688    3.4437    1.2312 N   0  0  0  0  0  0  0  0  0  0  0  0
   -2.0481   -0.8111   -1.8460 O   0  0  0  0  0  0  0  0  0  0  0  0
   -1.4829    2.0074   -1.6804 H   0  0  0  0  0  0  0  0  0  0  0  0
   -0.1194    3.7863   -0.6158 H   0  0  0  0  0  0  0  0  0  0  0  0
    3.7388    5.1923    1.3766 H   0  0  0  0  0  0  0  0  0  0  0  0
    1.9601    0.8318    1.7601 H   0  0  0  0  0  0  0  0  0  0  0  0
    5.5169    5.1096    3.1356 H   0  0  0  0  0  0  0  0  0  0  0  0
    3.7971    1.7557    4.7998 H   0  0  0  0  0  0  0  0  0  0  0  0
    0.0907   -2.8453    2.1694 H   0  0  0  0  0  0  0  0  0  0  0  0
   -0.9309   -1.3983    2.2693 H   0  0  0  0  0  0  0  0  0  0  0  0
    0.7738   -1.3160    2.7545 H   0  0  0  0  0  0  0  0  0  0  0  0
    1.7799   -3.0794    0.3994 H   0  0  0  0  0  0  0  0  0  0  0  0
    2.5970   -1.5687    0.8439 H   0  0  0  0  0  0  0  0  0  0  0  0
    2.0116   -1.8060   -0.8141 H   0  0  0  0  0  0  0  0  0  0  0  0
   -0.8478   -2.7903   -0.4390 H   0  0  0  0  0  0  0  0  0  0  0  0
    1.5387    4.3708    0.8888 H   0  0  0  0  0  0  0  0  0  0  0  0
  1  2  1  0  0  0  0
  1  7  2  0  0  0  0
  2  9  2  0  0  0  0
  3  5  1  0  0  0  0
  3 10  2  0  0  0  0
  4  8  2  0  0  0  0
  4  9  1  0  0  0  0
  5 15  2  0  0  0  0
  6 15  1  0  0  0  0
  6 16  2  0  0  0  0
  7  8  1  0  0  0  0
  7 11  1  0  0  0  0
  8 12  1  0  0  0  0
  9 18  1  0  0  0  0
 10 16  1  0  0  0  0
 10 18  1  0  0  0  0
 11 17  1  0  0  0  0
 11 19  2  0  0  0  0
 12 13  1  0  0  0  0
 12 14  1  0  0  0  0
 12 17  1  0  0  0  0
  1 20  1  0  0  0  0
  2 21  1  0  0  0  0
  3 22  1  0  0  0  0
  4 23  1  0  0  0  0
  5 24  1  0  0  0  0
  6 25  1  0  0  0  0
 13 26  1  0  0  0  0
 13 27  1  0  0  0  0
 13 28  1  0  0  0  0
 14 29  1  0  0  0  0
 14 30  1  0  0  0  0
 14 31  1  0  0  0  0
 17 32  1  0  0  0  0
 18 33  1  0  0  0  0
M  END
> <Molecule Name>
cmp_5

> <mmff94s_NoEstat>
71.68

> <IC50_nM>
100

$$$$
cmp_6
  -OEChem-07021816493D

 29 31  0     0  0  0  0  0  0999 V2000
   -1.6917    1.8938   -0.9723 C   0  0  0  0  0  0  0  0  0  0  0  0
   -0.5107    1.1600   -0.9609 C   0  0  0  0  0  0  0  0  0  0  0  0
   -2.6558    1.5857   -0.0261 C   0  0  0  0  0  0  0  0  0  0  0  0
   -1.3572   -0.0753    0.8866 C   0  0  0  0  0  0  0  0  0  0  0  0
    1.0607   -1.9796   -0.1225 C   0  0  0  0  0  0  0  0  0  0  0  0
   -0.3324    0.1548   -0.0170 C   0  0  0  0  0  0  0  0  0  0  0  0
    0.8827   -0.6244    0.0204 C   0  0  0  0  0  0  0  0  0  0  0  0
    3.0269   -1.1862    0.1836 C   0  0  0  0  0  0  0  0  0  0  0  0
    3.8321    1.4763    0.5893 C   0  0  0  0  0  0  0  0  0  0  0  0
    4.7929    0.3847    0.5620 C   0  0  0  0  0  0  0  0  0  0  0  0
    2.5303    1.2056    0.4169 C   0  0  0  0  0  0  0  0  0  0  0  0
    4.4267   -0.9047    0.3680 C   0  0  0  0  0  0  0  0  0  0  0  0
    5.4401   -1.9566    0.3511 C   0  0  0  0  0  0  0  0  0  0  0  0
   -2.5185    0.6166    0.9064 N   0  0  0  0  0  0  0  0  0  0  0  0
    2.3846   -2.3208   -0.0212 N   0  3  0  0  0  0  0  0  0  0  0  0
    2.1397   -0.1127    0.2168 N   0  0  0  0  0  0  0  0  0  0  0  0
    4.9242   -3.2164    0.1446 N   0  0  0  0  0  0  0  0  0  0  0  0
    6.6362   -1.7104    0.5089 O   0  0  0  0  0  0  0  0  0  0  0  0
   -1.8526    2.6819   -1.6989 H   0  0  0  0  0  0  0  0  0  0  0  0
    0.2611    1.3829   -1.6934 H   0  0  0  0  0  0  0  0  0  0  0  0
   -3.5946    2.1286    0.0072 H   0  0  0  0  0  0  0  0  0  0  0  0
   -1.2803   -0.8456    1.6487 H   0  0  0  0  0  0  0  0  0  0  0  0
    0.3042   -2.7323   -0.2938 H   0  0  0  0  0  0  0  0  0  0  0  0
    4.1901    2.4861    0.7489 H   0  0  0  0  0  0  0  0  0  0  0  0
    5.8341    0.6580    0.7068 H   0  0  0  0  0  0  0  0  0  0  0  0
    1.7716    1.9785    0.4279 H   0  0  0  0  0  0  0  0  0  0  0  0
    3.9219   -3.3201    0.0243 H   0  0  0  0  0  0  0  0  0  0  0  0
    5.5092   -4.0455    0.1083 H   0  0  0  0  0  0  0  0  0  0  0  0
    2.7804   -3.2367   -0.0883 H   0  0  0  0  0  0  0  0  0  0  0  0
  1  2  1  0  0  0  0
  1  3  2  0  0  0  0
  2  6  2  0  0  0  0
  3 14  1  0  0  0  0
  4  6  1  0  0  0  0
  4 14  2  0  0  0  0
  5  7  2  0  0  0  0
  5 15  1  0  0  0  0
  6  7  1  0  0  0  0
  7 16  1  0  0  0  0
  8 12  1  0  0  0  0
  8 15  2  0  0  0  0
  8 16  1  0  0  0  0
  9 10  1  0  0  0  0
  9 11  2  0  0  0  0
 10 12  2  0  0  0  0
 11 16  1  0  0  0  0
 12 13  1  0  0  0  0
 13 17  1  0  0  0  0
 13 18  2  0  0  0  0
  1 19  1  0  0  0  0
  2 20  1  0  0  0  0
  3 21  1  0  0  0  0
  4 22  1  0  0  0  0
  5 23  1  0  0  0  0
  9 24  1  0  0  0  0
 10 25  1  0  0  0  0
 11 26  1  0  0  0  0
 17 27  1  0  0  0  0
 17 28  1  0  0  0  0
 15 29  1  0  0  0  0
M  CHG  1  15   1
M  END
> <Molecule Name>
cmp_6

> <mmff94s_NoEstat>
51.75

> <IC50_nM>
6400

$$$$
cmp_7
  -OEChem-07021816493D

 34 36  0     0  0  0  0  0  0999 V2000
    6.1866   -0.0739   -0.6822 C   0  0  0  0  0  0  0  0  0  0  0  0
    6.6799   -0.7064    1.5852 C   0  0  0  0  0  0  0  0  0  0  0  0
    3.4177   -1.3505   -0.1094 C   0  0  0  0  0  0  0  0  0  0  0  0
    7.5289    0.2360   -0.8308 C   0  0  0  0  0  0  0  0  0  0  0  0
    8.0001   -0.3684    1.3350 C   0  0  0  0  0  0  0  0  0  0  0  0
    5.7621   -0.5534    0.5519 C   0  0  0  0  0  0  0  0  0  0  0  0
    4.3771   -0.8905    0.7592 C   0  0  0  0  0  0  0  0  0  0  0  0
    2.2630   -1.4904    0.6837 C   0  0  0  0  0  0  0  0  0  0  0  0
    0.9151   -3.4148   -0.2768 C   0  0  0  0  0  0  0  0  0  0  0  0
    0.2611   -1.0398   -0.8101 C   0  0  0  0  0  0  0  0  0  0  0  0
   -0.4696   -3.8500   -0.7572 C   0  0  0  0  0  0  0  0  0  0  0  0
   -1.0971   -1.5708   -1.2693 C   0  0  0  0  0  0  0  0  0  0  0  0
    0.8893   -1.9681    0.2415 C   0  0  0  0  0  0  0  0  0  0  0  0
    8.4499    0.1006    0.1495 N   0  0  0  0  0  0  0  0  0  0  0  0
    2.4681   -1.1473    1.9581 N   0  0  0  0  0  0  0  0  0  0  0  0
    3.7628   -0.7873    1.9725 N   0  0  0  0  0  0  0  0  0  0  0  0
   -0.9943   -2.9397   -1.7756 N   0  3  0  0  0  0  0  0  0  0  0  0
    5.5001    0.0590   -1.5122 H   0  0  0  0  0  0  0  0  0  0  0  0
    6.3865   -1.0776    2.5619 H   0  0  0  0  0  0  0  0  0  0  0  0
    3.5352   -1.5547   -1.1645 H   0  0  0  0  0  0  0  0  0  0  0  0
    7.9106    0.6138   -1.7736 H   0  0  0  0  0  0  0  0  0  0  0  0
    8.7552   -0.4694    2.1077 H   0  0  0  0  0  0  0  0  0  0  0  0
    1.2581   -4.0930    0.5144 H   0  0  0  0  0  0  0  0  0  0  0  0
    1.6351   -3.5082   -1.1014 H   0  0  0  0  0  0  0  0  0  0  0  0
    0.9291   -0.9438   -1.6771 H   0  0  0  0  0  0  0  0  0  0  0  0
    0.1392   -0.0304   -0.3978 H   0  0  0  0  0  0  0  0  0  0  0  0
   -0.4080   -4.8583   -1.1809 H   0  0  0  0  0  0  0  0  0  0  0  0
   -1.1665   -3.9063    0.0876 H   0  0  0  0  0  0  0  0  0  0  0  0
   -1.8207   -1.5307   -0.4462 H   0  0  0  0  0  0  0  0  0  0  0  0
   -1.4902   -0.9273   -2.0641 H   0  0  0  0  0  0  0  0  0  0  0  0
    0.2484   -1.9413    1.1469 H   0  0  0  0  0  0  0  0  0  0  0  0
    4.1624   -0.4790    2.8505 H   0  0  0  0  0  0  0  0  0  0  0  0
   -0.3819   -2.9487   -2.5661 H   0  0  0  0  0  0  0  0  0  0  0  0
   -1.9025   -3.2523   -2.0540 H   0  0  0  0  0  0  0  0  0  0  0  0
  1  4  2  0  0  0  0
  1  6  1  0  0  0  0
  2  5  1  0  0  0  0
  2  6  2  0  0  0  0
  3  7  2  0  0  0  0
  3  8  1  0  0  0  0
  4 14  1  0  0  0  0
  5 14  2  0  0  0  0
  6  7  1  0  0  0  0
  7 16  1  0  0  0  0
  8 13  1  0  0  0  0
  8 15  2  0  0  0  0
  9 11  1  0  0  0  0
  9 13  1  0  0  0  0
 10 12  1  0  0  0  0
 10 13  1  0  0  0  0
 11 17  1  0  0  0  0
 12 17  1  0  0  0  0
 15 16  1  0  0  0  0
  1 18  1  0  0  0  0
  2 19  1  0  0  0  0
  3 20  1  0  0  0  0
  4 21  1  0  0  0  0
  5 22  1  0  0  0  0
  9 23  1  0  0  0  0
  9 24  1  0  0  0  0
 10 25  1  0  0  0  0
 10 26  1  0  0  0  0
 11 27  1  0  0  0  0
 11 28  1  0  0  0  0
 12 29  1  0  0  0  0
 12 30  1  0  0  0  0
 13 31  1  0  0  0  0
 16 32  1  0  0  0  0
 17 33  1  0  0  0  0
 17 34  1  0  0  0  0
M  CHG  1  17   1
M  END
> <Molecule Name>
cmp_7

> <mmff94s_NoEstat>
23.10

> <IC50_nM>
5500

$$$$
cmp_8
  -OEChem-07021816493D

 26 27  0     0  0  0  0  0  0999 V2000
    1.8851   -1.0363   -0.1124 C   0  0  0  0  0  0  0  0  0  0  0  0
    2.8783   -1.6520    2.0022 C   0  0  0  0  0  0  0  0  0  0  0  0
    0.8066   -0.4630    0.5610 C   0  0  0  0  0  0  0  0  0  0  0  0
    1.7997   -1.0786    2.6757 C   0  0  0  0  0  0  0  0  0  0  0  0
   -2.6185    0.6507    2.9770 C   0  0  0  0  0  0  0  0  0  0  0  0
   -3.7366    1.3080    2.5057 C   0  0  0  0  0  0  0  0  0  0  0  0
   -2.5991    2.0375    0.6779 C   0  0  0  0  0  0  0  0  0  0  0  0
    2.9210   -1.6309    0.6081 C   0  0  0  0  0  0  0  0  0  0  0  0
    0.7638   -0.4841    1.9551 C   0  0  0  0  0  0  0  0  0  0  0  0
   -1.4899    0.7525    2.1896 C   0  0  0  0  0  0  0  0  0  0  0  0
    4.0455   -2.2286   -0.0940 C   0  0  0  0  0  0  0  0  0  0  0  0
   -3.7624    2.0134    1.3559 N   0  0  0  0  0  0  0  0  0  0  0  0
   -1.4446    1.4401    1.0297 N   0  0  0  0  0  0  0  0  0  0  0  0
    4.0399   -2.1808   -1.4851 N   0  0  0  0  0  0  0  0  0  0  0  0
   -0.3267    0.0956    2.6360 N   0  0  0  0  0  0  0  0  0  0  0  0
    4.9750   -2.7801    0.5212 O   0  0  0  0  0  0  0  0  0  0  0  0
    1.9083   -1.0142   -1.1990 H   0  0  0  0  0  0  0  0  0  0  0  0
    3.6800   -2.1126    2.5737 H   0  0  0  0  0  0  0  0  0  0  0  0
    0.0047   -0.0024   -0.0104 H   0  0  0  0  0  0  0  0  0  0  0  0
    1.7764   -1.1006    3.7622 H   0  0  0  0  0  0  0  0  0  0  0  0
   -2.6403    0.0946    3.9059 H   0  0  0  0  0  0  0  0  0  0  0  0
   -4.6712    1.2844    3.0561 H   0  0  0  0  0  0  0  0  0  0  0  0
   -2.5913    2.5969   -0.2496 H   0  0  0  0  0  0  0  0  0  0  0  0
    3.2631   -1.7370   -1.9629 H   0  0  0  0  0  0  0  0  0  0  0  0
    4.7958   -2.5803   -2.0319 H   0  0  0  0  0  0  0  0  0  0  0  0
   -0.2586    0.0256    3.6470 H   0  0  0  0  0  0  0  0  0  0  0  0
  1  3  2  0  0  0  0
  1  8  1  0  0  0  0
  2  4  1  0  0  0  0
  2  8  2  0  0  0  0
  3  9  1  0  0  0  0
  4  9  2  0  0  0  0
  5  6  2  0  0  0  0
  5 10  1  0  0  0  0
  6 12  1  0  0  0  0
  7 12  2  0  0  0  0
  7 13  1  0  0  0  0
  8 11  1  0  0  0  0
  9 15  1  0  0  0  0
 10 13  2  0  0  0  0
 10 15  1  0  0  0  0
 11 14  1  0  0  0  0
 11 16  2  0  0  0  0
  1 17  1  0  0  0  0
  2 18  1  0  0  0  0
  3 19  1  0  0  0  0
  4 20  1  0  0  0  0
  5 21  1  0  0  0  0
  6 22  1  0  0  0  0
  7 23  1  0  0  0  0
 14 24  1  0  0  0  0
 14 25  1  0  0  0  0
 15 26  1  0  0  0  0
M  END
> <Molecule Name>
cmp_8

> <mmff94s_NoEstat>
62.26

> <IC50_nM>
690

$$$$
cmp_9
  -OEChem-07021816493D

 26 27  0     0  0  0  0  0  0999 V2000
   -3.1810    2.2234   -3.0975 C   0  0  0  0  0  0  0  0  0  0  0  0
   -3.9913    3.3381   -3.1701 C   0  0  0  0  0  0  0  0  0  0  0  0
   -3.7950    3.6887   -0.9328 C   0  0  0  0  0  0  0  0  0  0  0  0
   -2.7067    1.9111   -1.8398 C   0  0  0  0  0  0  0  0  0  0  0  0
   -0.1064    1.5308   -0.2611 C   0  0  0  0  0  0  0  0  0  0  0  0
    0.9422    1.2256    0.6814 C   0  0  0  0  0  0  0  0  0  0  0  0
   -0.8728    0.5758   -0.8166 C   0  0  0  0  0  0  0  0  0  0  0  0
    1.1662   -0.0493    1.0161 C   0  0  0  0  0  0  0  0  0  0  0  0
   -0.6089   -0.8585   -0.4324 C   0  0  0  0  0  0  0  0  0  0  0  0
    2.2241   -0.3785    1.9686 C   0  0  0  0  0  0  0  0  0  0  0  0
   -4.3200    4.0966   -2.1039 N   0  0  0  0  0  0  0  0  0  0  0  0
   -2.9946    2.6245   -0.7315 N   0  0  0  0  0  0  0  0  0  0  0  0
    0.4166   -1.0639    0.4784 N   0  0  0  0  0  0  0  0  0  0  0  0
    2.3407   -1.7274    2.2184 N   0  0  0  0  0  0  0  0  0  0  0  0
   -1.8858    0.7930   -1.7243 N   0  0  0  0  0  0  0  0  0  0  0  0
   -1.2753   -1.7751   -0.9100 O   0  0  0  0  0  0  0  0  0  0  0  0
    2.9292    0.4897    2.4832 O   0  0  0  0  0  0  0  0  0  0  0  0
   -2.9411    1.6416   -3.9786 H   0  0  0  0  0  0  0  0  0  0  0  0
   -4.4108    3.6622   -4.1166 H   0  0  0  0  0  0  0  0  0  0  0  0
   -4.0426    4.2798   -0.0596 H   0  0  0  0  0  0  0  0  0  0  0  0
   -0.2554    2.5776   -0.5080 H   0  0  0  0  0  0  0  0  0  0  0  0
    1.5177    2.0492    1.0892 H   0  0  0  0  0  0  0  0  0  0  0  0
    0.6259   -2.0160    0.7641 H   0  0  0  0  0  0  0  0  0  0  0  0
    1.7123   -2.3679    1.7447 H   0  0  0  0  0  0  0  0  0  0  0  0
    3.0321   -2.1052    2.8589 H   0  0  0  0  0  0  0  0  0  0  0  0
   -2.0269    0.0364   -2.3696 H   0  0  0  0  0  0  0  0  0  0  0  0
  1  2  2  0  0  0  0
  1  4  1  0  0  0  0
  2 11  1  0  0  0  0
  3 11  2  0  0  0  0
  3 12  1  0  0  0  0
  4 12  2  0  0  0  0
  4 15  1  0  0  0  0
  5  6  1  0  0  0  0
  5  7  2  0  0  0  0
  6  8  2  0  0  0  0
  7  9  1  0  0  0  0
  7 15  1  0  0  0  0
  8 10  1  0  0  0  0
  8 13  1  0  0  0  0
  9 13  1  0  0  0  0
  9 16  2  0  0  0  0
 10 14  1  0  0  0  0
 10 17  2  0  0  0  0
  1 18  1  0  0  0  0
  2 19  1  0  0  0  0
  3 20  1  0  0  0  0
  5 21  1  0  0  0  0
  6 22  1  0  0  0  0
 13 23  1  0  0  0  0
 14 24  1  0  0  0  0
 14 25  1  0  0  0  0
 15 26  1  0  0  0  0
M  END
> <Molecule Name>
cmp_9

> <mmff94s_NoEstat>
59.57

> <IC50_nM>
3000

$$$$
cmp_10
  -OEChem-07021816493D

 33 35  0     0  0  0  0  0  0999 V2000
   -5.2781    2.5617    1.0474 C   0  0  0  0  0  0  0  0  0  0  0  0
   -6.3196    3.2293    0.4358 C   0  0  0  0  0  0  0  0  0  0  0  0
   -5.1141    3.4612   -1.4773 C   0  0  0  0  0  0  0  0  0  0  0  0
   -4.1470    2.3864    0.2767 C   0  0  0  0  0  0  0  0  0  0  0  0
   -1.2964   -0.5899   -1.4879 C   0  0  0  0  0  0  0  0  0  0  0  0
   -2.3310    0.2139   -0.8832 C   0  0  0  0  0  0  0  0  0  0  0  0
   -0.0976   -0.6103   -0.9072 C   0  0  0  0  0  0  0  0  0  0  0  0
   -2.1247    0.9366    0.2340 C   0  0  0  0  0  0  0  0  0  0  0  0
    1.1025   -1.3548   -1.3446 C   0  0  0  0  0  0  0  0  0  0  0  0
   -0.7557    0.9006    0.8827 C   0  0  0  0  0  0  0  0  0  0  0  0
    1.5882   -0.1255    0.6303 C   0  0  0  0  0  0  0  0  0  0  0  0
    1.6858   -0.7985    2.0015 C   0  0  0  0  0  0  0  0  0  0  0  0
    2.3975    1.1733    0.5949 C   0  0  0  0  0  0  0  0  0  0  0  0
   -6.2716    3.6944   -0.8297 N   0  0  0  0  0  0  0  0  0  0  0  0
   -4.0302    2.8246   -0.9940 N   0  0  0  0  0  0  0  0  0  0  0  0
    2.0756   -1.0370   -0.4010 N   0  0  0  0  0  0  0  0  0  0  0  0
    0.1795    0.1034    0.2376 N   0  0  0  0  0  0  0  0  0  0  0  0
   -3.0739    1.7177    0.8574 N   0  0  0  0  0  0  0  0  0  0  0  0
    1.1890   -2.0780   -2.3197 O   0  0  0  0  0  0  0  0  0  0  0  0
   -0.5388    1.5486    1.9050 O   0  0  0  0  0  0  0  0  0  0  0  0
   -5.3578    2.2040    2.0662 H   0  0  0  0  0  0  0  0  0  0  0  0
   -7.2499    3.4137    0.9625 H   0  0  0  0  0  0  0  0  0  0  0  0
   -5.0479    3.8239   -2.4957 H   0  0  0  0  0  0  0  0  0  0  0  0
   -1.5218   -1.1484   -2.3881 H   0  0  0  0  0  0  0  0  0  0  0  0
   -3.2998    0.2135   -1.3737 H   0  0  0  0  0  0  0  0  0  0  0  0
    1.1035   -1.7171    2.0005 H   0  0  0  0  0  0  0  0  0  0  0  0
    1.2988   -0.1287    2.7661 H   0  0  0  0  0  0  0  0  0  0  0  0
    2.7252   -1.0322    2.2211 H   0  0  0  0  0  0  0  0  0  0  0  0
    2.3118    1.6309   -0.3881 H   0  0  0  0  0  0  0  0  0  0  0  0
    3.4435    0.9581    0.8010 H   0  0  0  0  0  0  0  0  0  0  0  0
    2.0172    1.8617    1.3462 H   0  0  0  0  0  0  0  0  0  0  0  0
    3.0234   -1.4003   -0.4272 H   0  0  0  0  0  0  0  0  0  0  0  0
   -2.9512    1.7953    1.8509 H   0  0  0  0  0  0  0  0  0  0  0  0
  1  2  1  0  0  0  0
  1  4  2  0  0  0  0
  2 14  2  0  0  0  0
  3 14  1  0  0  0  0
  3 15  2  0  0  0  0
  4 15  1  0  0  0  0
  4 18  1  0  0  0  0
  5  6  1  0  0  0  0
  5  7  2  0  0  0  0
  6  8  2  0  0  0  0
  7  9  1  0  0  0  0
  7 17  1  0  0  0  0
  8 10  1  0  0  0  0
  8 18  1  0  0  0  0
  9 16  1  0  0  0  0
  9 19  2  0  0  0  0
 10 17  1  0  0  0  0
 10 20  2  0  0  0  0
 11 12  1  0  0  0  0
 11 13  1  0  0  0  0
 11 16  1  0  0  0  0
 11 17  1  0  0  0  0
  1 21  1  0  0  0  0
  2 22  1  0  0  0  0
  3 23  1  0  0  0  0
  5 24  1  0  0  0  0
  6 25  1  0  0  0  0
 12 26  1  0  0  0  0
 12 27  1  0  0  0  0
 12 28  1  0  0  0  0
 13 29  1  0  0  0  0
 13 30  1  0  0  0  0
 13 31  1  0  0  0  0
 16 32  1  0  0  0  0
 18 33  1  0  0  0  0
M  END
> <Molecule Name>
cmp_10

> <mmff94s_NoEstat>
67.00

> <IC50_nM>
60

$$$$
cmp_11
  -OEChem-07021816493D

 33 35  0     0  0  0  0  0  0999 V2000
    5.6669    1.7333   -0.4088 C   0  0  0  0  0  0  0  0  0  0  0  0
    6.9410    1.3567   -0.0358 C   0  0  0  0  0  0  0  0  0  0  0  0
    6.1146   -0.1894    1.4112 C   0  0  0  0  0  0  0  0  0  0  0  0
    4.6379    1.0572    0.2144 C   0  0  0  0  0  0  0  0  0  0  0  0
    2.2175   -0.7212   -0.3697 C   0  0  0  0  0  0  0  0  0  0  0  0
   -0.1536   -0.8819   -0.1329 C   0  0  0  0  0  0  0  0  0  0  0  0
    2.2166    0.6060   -0.1416 C   0  0  0  0  0  0  0  0  0  0  0  0
    1.0042   -1.4947   -0.3660 C   0  0  0  0  0  0  0  0  0  0  0  0
   -1.5070   -1.4744   -0.0831 C   0  0  0  0  0  0  0  0  0  0  0  0
    0.8942    1.3007    0.1223 C   0  0  0  0  0  0  0  0  0  0  0  0
   -1.6318    0.8630    0.3283 C   0  0  0  0  0  0  0  0  0  0  0  0
   -2.1164    1.8480   -0.7382 C   0  0  0  0  0  0  0  0  0  0  0  0
   -1.8414    1.4271    1.7356 C   0  0  0  0  0  0  0  0  0  0  0  0
    7.2023    0.3957    0.8745 N   0  0  0  0  0  0  0  0  0  0  0  0
    4.8264    0.0866    1.1324 N   0  0  0  0  0  0  0  0  0  0  0  0
   -2.3497   -0.4011    0.1931 N   0  0  0  0  0  0  0  0  0  0  0  0
   -0.2214    0.4735    0.1052 N   0  0  0  0  0  0  0  0  0  0  0  0
    3.3375    1.4080   -0.1344 N   0  0  0  0  0  0  0  0  0  0  0  0
   -1.7906   -2.6460   -0.2509 O   0  0  0  0  0  0  0  0  0  0  0  0
    0.8645    2.5122    0.3318 O   0  0  0  0  0  0  0  0  0  0  0  0
    1.0772   -2.8193   -0.5994 F   0  0  0  0  0  0  0  0  0  0  0  0
    5.5005    2.5102   -1.1445 H   0  0  0  0  0  0  0  0  0  0  0  0
    7.8134    1.8313   -0.4722 H   0  0  0  0  0  0  0  0  0  0  0  0
    6.2952   -0.9651    2.1453 H   0  0  0  0  0  0  0  0  0  0  0  0
    3.1429   -1.2538   -0.5651 H   0  0  0  0  0  0  0  0  0  0  0  0
   -1.9567    1.4243   -1.7272 H   0  0  0  0  0  0  0  0  0  0  0  0
   -1.5631    2.7805   -0.6534 H   0  0  0  0  0  0  0  0  0  0  0  0
   -3.1769    2.0454   -0.5989 H   0  0  0  0  0  0  0  0  0  0  0  0
   -1.4897    0.7096    2.4735 H   0  0  0  0  0  0  0  0  0  0  0  0
   -2.8993    1.6204    1.8983 H   0  0  0  0  0  0  0  0  0  0  0  0
   -1.2856    2.3558    1.8440 H   0  0  0  0  0  0  0  0  0  0  0  0
   -3.3567   -0.4882    0.2903 H   0  0  0  0  0  0  0  0  0  0  0  0
    3.1647    2.3548   -0.4204 H   0  0  0  0  0  0  0  0  0  0  0  0
  1  2  1  0  0  0  0
  1  4  2  0  0  0  0
  2 14  2  0  0  0  0
  3 14  1  0  0  0  0
  3 15  2  0  0  0  0
  4 15  1  0  0  0  0
  4 18  1  0  0  0  0
  5  7  2  0  0  0  0
  5  8  1  0  0  0  0
  6  8  2  0  0  0  0
  6  9  1  0  0  0  0
  6 17  1  0  0  0  0
  7 10  1  0  0  0  0
  7 18  1  0  0  0  0
  8 21  1  0  0  0  0
  9 16  1  0  0  0  0
  9 19  2  0  0  0  0
 10 17  1  0  0  0  0
 10 20  2  0  0  0  0
 11 12  1  0  0  0  0
 11 13  1  0  0  0  0
 11 16  1  0  0  0  0
 11 17  1  0  0  0  0
  1 22  1  0  0  0  0
  2 23  1  0  0  0  0
  3 24  1  0  0  0  0
  5 25  1  0  0  0  0
 12 26  1  0  0  0  0
 12 27  1  0  0  0  0
 12 28  1  0  0  0  0
 13 29  1  0  0  0  0
 13 30  1  0  0  0  0
 13 31  1  0  0  0  0
 16 32  1  0  0  0  0
 18 33  1  0  0  0  0
M  END
> <Molecule Name>
cmp_11

> <mmff94s_NoEstat>
67.55

> <IC50_nM>
6.5

$$$$
cmp_12
  -OEChem-07021816493D

 36 38  0     0  0  0  0  0  0999 V2000
    4.6955   -1.4422    3.3299 C   0  0  0  0  0  0  0  0  0  0  0  0
    6.0497   -1.6903    3.2355 C   0  0  0  0  0  0  0  0  0  0  0  0
    6.1106   -0.8355    1.1300 C   0  0  0  0  0  0  0  0  0  0  0  0
    4.1160   -0.8619    2.2201 C   0  0  0  0  0  0  0  0  0  0  0  0
    1.9418   -1.3158    0.1160 C   0  0  0  0  0  0  0  0  0  0  0  0
    0.9627   -1.2641   -0.9583 C   0  0  0  0  0  0  0  0  0  0  0  0
   -0.0759   -0.4306   -0.8057 C   0  0  0  0  0  0  0  0  0  0  0  0
    1.8496   -0.5738    1.2335 C   0  0  0  0  0  0  0  0  0  0  0  0
   -1.2179   -0.1693   -1.7239 C   0  0  0  0  0  0  0  0  0  0  0  0
    0.6728    0.3556    1.3864 C   0  0  0  0  0  0  0  0  0  0  0  0
   -1.4517    1.1687    0.2198 C   0  0  0  0  0  0  0  0  0  0  0  0
    1.2373   -2.1642   -2.1245 C   0  0  0  0  0  0  0  0  0  0  0  0
   -2.4527    0.8223    1.3253 C   0  0  0  0  0  0  0  0  0  0  0  0
   -1.1373    2.6672    0.2143 C   0  0  0  0  0  0  0  0  0  0  0  0
    6.7910   -1.3986    2.1466 N   0  0  0  0  0  0  0  0  0  0  0  0
    4.7962   -0.5439    1.0991 N   0  0  0  0  0  0  0  0  0  0  0  0
   -1.9966    0.7798   -1.0712 N   0  0  0  0  0  0  0  0  0  0  0  0
   -0.2212    0.3547    0.3252 N   0  0  0  0  0  0  0  0  0  0  0  0
    2.7515   -0.5959    2.2755 N   0  0  0  0  0  0  0  0  0  0  0  0
   -1.4231   -0.6783   -2.8103 O   0  0  0  0  0  0  0  0  0  0  0  0
    0.5600    1.0445    2.3989 O   0  0  0  0  0  0  0  0  0  0  0  0
    4.1369   -1.6917    4.2233 H   0  0  0  0  0  0  0  0  0  0  0  0
    6.5926   -2.1436    4.0580 H   0  0  0  0  0  0  0  0  0  0  0  0
    6.6814   -0.5907    0.2427 H   0  0  0  0  0  0  0  0  0  0  0  0
    2.7820   -1.9941   -0.0109 H   0  0  0  0  0  0  0  0  0  0  0  0
    0.7688   -3.1317   -1.9561 H   0  0  0  0  0  0  0  0  0  0  0  0
    2.3117   -2.2955   -2.2389 H   0  0  0  0  0  0  0  0  0  0  0  0
    0.8347   -1.7180   -3.0319 H   0  0  0  0  0  0  0  0  0  0  0  0
   -2.6599   -0.2451    1.3093 H   0  0  0  0  0  0  0  0  0  0  0  0
   -3.3781    1.3706    1.1651 H   0  0  0  0  0  0  0  0  0  0  0  0
   -2.0367    1.0935    2.2929 H   0  0  0  0  0  0  0  0  0  0  0  0
   -0.4257    2.8883   -0.5777 H   0  0  0  0  0  0  0  0  0  0  0  0
   -0.7099    2.9542    1.1722 H   0  0  0  0  0  0  0  0  0  0  0  0
   -2.0513    3.2315    0.0446 H   0  0  0  0  0  0  0  0  0  0  0  0
   -2.8555    1.1613   -1.4555 H   0  0  0  0  0  0  0  0  0  0  0  0
    2.3466   -0.3912    3.1711 H   0  0  0  0  0  0  0  0  0  0  0  0
  1  2  1  0  0  0  0
  1  4  2  0  0  0  0
  2 15  2  0  0  0  0
  3 15  1  0  0  0  0
  3 16  2  0  0  0  0
  4 16  1  0  0  0  0
  4 19  1  0  0  0  0
  5  6  1  0  0  0  0
  5  8  2  0  0  0  0
  6  7  2  0  0  0  0
  6 12  1  0  0  0  0
  7  9  1  0  0  0  0
  7 18  1  0  0  0  0
  8 10  1  0  0  0  0
  8 19  1  0  0  0  0
  9 17  1  0  0  0  0
  9 20  2  0  0  0  0
 10 18  1  0  0  0  0
 10 21  2  0  0  0  0
 11 13  1  0  0  0  0
 11 14  1  0  0  0  0
 11 17  1  0  0  0  0
 11 18  1  0  0  0  0
  1 22  1  0  0  0  0
  2 23  1  0  0  0  0
  3 24  1  0  0  0  0
  5 25  1  0  0  0  0
 12 26  1  0  0  0  0
 12 27  1  0  0  0  0
 12 28  1  0  0  0  0
 13 29  1  0  0  0  0
 13 30  1  0  0  0  0
 13 31  1  0  0  0  0
 14 32  1  0  0  0  0
 14 33  1  0  0  0  0
 14 34  1  0  0  0  0
 17 35  1  0  0  0  0
 19 36  1  0  0  0  0
M  END
> <Molecule Name>
cmp_12

> <mmff94s_NoEstat>
71.83

> <IC50_nM>
10

$$$$
cmp_13
  -OEChem-07021816493D

 33 35  0     0  0  0  0  0  0999 V2000
    5.7689    1.4199    0.1307 C   0  0  0  0  0  0  0  0  0  0  0  0
    6.9988    0.9018    0.4819 C   0  0  0  0  0  0  0  0  0  0  0  0
    6.0128   -0.8127    1.6024 C   0  0  0  0  0  0  0  0  0  0  0  0
    4.6726    0.7158    0.5851 C   0  0  0  0  0  0  0  0  0  0  0  0
    2.1853   -0.7715   -0.3954 C   0  0  0  0  0  0  0  0  0  0  0  0
   -0.2037   -0.8253   -0.2874 C   0  0  0  0  0  0  0  0  0  0  0  0
    2.2501    0.4927    0.0608 C   0  0  0  0  0  0  0  0  0  0  0  0
    0.9312   -1.4674   -0.5797 C   0  0  0  0  0  0  0  0  0  0  0  0
   -1.6095   -1.3004   -0.3841 C   0  0  0  0  0  0  0  0  0  0  0  0
    0.9628    1.2126    0.3878 C   0  0  0  0  0  0  0  0  0  0  0  0
   -1.5827    0.9316    0.4203 C   0  0  0  0  0  0  0  0  0  0  0  0
   -1.9455    2.1188   -0.4757 C   0  0  0  0  0  0  0  0  0  0  0  0
   -1.8201    1.2629    1.8960 C   0  0  0  0  0  0  0  0  0  0  0  0
    7.1580   -0.2167    1.2195 N   0  0  0  0  0  0  0  0  0  0  0  0
    4.7582   -0.4087    1.3258 N   0  0  0  0  0  0  0  0  0  0  0  0
   -2.3815   -0.2260    0.0446 N   0  0  0  0  0  0  0  0  0  0  0  0
   -0.1956    0.4755    0.1823 N   0  0  0  0  0  0  0  0  0  0  0  0
    3.4138    1.2062    0.2523 N   0  0  0  0  0  0  0  0  0  0  0  0
   -1.9898   -2.3946   -0.7582 O   0  0  0  0  0  0  0  0  0  0  0  0
    0.9931    2.3695    0.8043 O   0  0  0  0  0  0  0  0  0  0  0  0
    0.9919   -3.0845   -1.1679 Cl  0  0  0  0  0  0  0  0  0  0  0  0
    5.6850    2.3211   -0.4636 H   0  0  0  0  0  0  0  0  0  0  0  0
    7.9180    1.3861    0.1699 H   0  0  0  0  0  0  0  0  0  0  0  0
    6.1111   -1.7133    2.1960 H   0  0  0  0  0  0  0  0  0  0  0  0
    3.1011   -1.3040   -0.6385 H   0  0  0  0  0  0  0  0  0  0  0  0
   -1.7684    1.8586   -1.5167 H   0  0  0  0  0  0  0  0  0  0  0  0
   -1.3330    2.9773   -0.2105 H   0  0  0  0  0  0  0  0  0  0  0  0
   -2.9950    2.3705   -0.3415 H   0  0  0  0  0  0  0  0  0  0  0  0
   -1.5554    0.4053    2.5102 H   0  0  0  0  0  0  0  0  0  0  0  0
   -2.8684    1.5067    2.0517 H   0  0  0  0  0  0  0  0  0  0  0  0
   -1.2064    2.1138    2.1828 H   0  0  0  0  0  0  0  0  0  0  0  0
   -3.3957   -0.2468    0.0908 H   0  0  0  0  0  0  0  0  0  0  0  0
    3.3106    2.1972    0.1298 H   0  0  0  0  0  0  0  0  0  0  0  0
  1  2  2  0  0  0  0
  1  4  1  0  0  0  0
  2 14  1  0  0  0  0
  3 14  2  0  0  0  0
  3 15  1  0  0  0  0
  4 15  2  0  0  0  0
  4 18  1  0  0  0  0
  5  7  2  0  0  0  0
  5  8  1  0  0  0  0
  6  8  2  0  0  0  0
  6  9  1  0  0  0  0
  6 17  1  0  0  0  0
  7 10  1  0  0  0  0
  7 18  1  0  0  0  0
  8 21  1  0  0  0  0
  9 16  1  0  0  0  0
  9 19  2  0  0  0  0
 10 17  1  0  0  0  0
 10 20  2  0  0  0  0
 11 12  1  0  0  0  0
 11 13  1  0  0  0  0
 11 16  1  0  0  0  0
 11 17  1  0  0  0  0
  1 22  1  0  0  0  0
  2 23  1  0  0  0  0
  3 24  1  0  0  0  0
  5 25  1  0  0  0  0
 12 26  1  0  0  0  0
 12 27  1  0  0  0  0
 12 28  1  0  0  0  0
 13 29  1  0  0  0  0
 13 30  1  0  0  0  0
 13 31  1  0  0  0  0
 16 32  1  0  0  0  0
 18 33  1  0  0  0  0
M  END
> <Molecule Name>
cmp_13

> <mmff94s_NoEstat>
69.29

> <IC50_nM>
3.3

$$$$
cmp_14
  -OEChem-07021816493D

 38 41  0     0  0  0  0  0  0999 V2000
   12.0822   -3.5902   -3.3108 C   0  0  0  0  0  0  0  0  0  0  0  0
   11.3928   -2.6895   -2.4975 C   0  0  0  0  0  0  0  0  0  0  0  0
   11.5546   -4.2023   -0.5877 C   0  0  0  0  0  0  0  0  0  0  0  0
    8.8785   -1.3837    1.3245 C   0  0  0  0  0  0  0  0  0  0  0  0
   10.3153   -2.7183    3.1586 C   0  0  0  0  0  0  0  0  0  0  0  0
   12.4887   -4.7765   -2.7327 C   0  0  0  0  0  0  0  0  0  0  0  0
   12.2368   -5.0912   -1.3964 C   0  0  0  0  0  0  0  0  0  0  0  0
   11.1312   -2.9924   -1.1482 C   0  0  0  0  0  0  0  0  0  0  0  0
   10.0267   -2.0758    0.9974 C   0  0  0  0  0  0  0  0  0  0  0  0
    8.5168   -1.4224    2.6556 C   0  0  0  0  0  0  0  0  0  0  0  0
   13.2202   -5.8952   -3.3347 C   0  0  0  0  0  0  0  0  0  0  0  0
    6.4939    0.0072    2.2217 C   0  0  0  0  0  0  0  0  0  0  0  0
   12.7942   -6.4324   -1.0656 C   0  0  0  0  0  0  0  0  0  0  0  0
    4.6918    1.8139    2.4891 C   0  0  0  0  0  0  0  0  0  0  0  0
    5.5730    1.8903    3.6995 C   0  0  0  0  0  0  0  0  0  0  0  0
    5.3516    0.5916    3.0142 C   0  0  0  0  0  0  0  0  0  0  0  0
   10.7723   -2.7565    1.8924 N   0  0  0  0  0  0  0  0  0  0  0  0
    9.2145   -2.0826    3.6031 N   0  0  0  0  0  0  0  0  0  0  0  0
   13.3783   -6.8407   -2.3292 N   0  0  0  0  0  0  0  0  0  0  0  0
   10.4303   -2.0607   -0.3501 N   0  0  0  0  0  0  0  0  0  0  0  0
    7.3578   -0.7345    3.0336 N   0  0  0  0  0  0  0  0  0  0  0  0
   13.5936   -5.9389   -4.4918 O   0  0  0  0  0  0  0  0  0  0  0  0
    6.5840    0.2006    1.0136 O   0  0  0  0  0  0  0  0  0  0  0  0
   12.2858   -3.3594   -4.3498 H   0  0  0  0  0  0  0  0  0  0  0  0
   11.0562   -1.7453   -2.9198 H   0  0  0  0  0  0  0  0  0  0  0  0
   11.3545   -4.4404    0.4522 H   0  0  0  0  0  0  0  0  0  0  0  0
    8.2989   -0.8444    0.5838 H   0  0  0  0  0  0  0  0  0  0  0  0
   10.8952   -3.2566    3.8983 H   0  0  0  0  0  0  0  0  0  0  0  0
   13.5841   -6.3834   -0.3122 H   0  0  0  0  0  0  0  0  0  0  0  0
   12.0188   -7.1506   -0.7873 H   0  0  0  0  0  0  0  0  0  0  0  0
    3.6277    1.9586    2.6309 H   0  0  0  0  0  0  0  0  0  0  0  0
    5.0775    2.2112    1.5581 H   0  0  0  0  0  0  0  0  0  0  0  0
    6.5518    2.3395    3.5834 H   0  0  0  0  0  0  0  0  0  0  0  0
    5.1002    2.0886    4.6537 H   0  0  0  0  0  0  0  0  0  0  0  0
    4.7599   -0.1579    3.4935 H   0  0  0  0  0  0  0  0  0  0  0  0
   13.8541   -7.7271   -2.4648 H   0  0  0  0  0  0  0  0  0  0  0  0
   10.1676   -1.2175   -0.8498 H   0  0  0  0  0  0  0  0  0  0  0  0
    7.1100   -0.7796    4.0267 H   0  0  0  0  0  0  0  0  0  0  0  0
  1  2  1  0  0  0  0
  1  6  2  0  0  0  0
  2  8  2  0  0  0  0
  3  7  2  0  0  0  0
  3  8  1  0  0  0  0
  4  9  1  0  0  0  0
  4 10  2  0  0  0  0
  5 17  1  0  0  0  0
  5 18  2  0  0  0  0
  6  7  1  0  0  0  0
  6 11  1  0  0  0  0
  7 13  1  0  0  0  0
  8 20  1  0  0  0  0
  9 17  2  0  0  0  0
  9 20  1  0  0  0  0
 10 18  1  0  0  0  0
 10 21  1  0  0  0  0
 11 19  1  0  0  0  0
 11 22  2  0  0  0  0
 12 16  1  0  0  0  0
 12 21  1  0  0  0  0
 12 23  2  0  0  0  0
 13 19  1  0  0  0  0
 14 15  1  0  0  0  0
 14 16  1  0  0  0  0
 15 16  1  0  0  0  0
  1 24  1  0  0  0  0
  2 25  1  0  0  0  0
  3 26  1  0  0  0  0
  4 27  1  0  0  0  0
  5 28  1  0  0  0  0
 13 29  1  0  0  0  0
 13 30  1  0  0  0  0
 14 31  1  0  0  0  0
 14 32  1  0  0  0  0
 15 33  1  0  0  0  0
 15 34  1  0  0  0  0
 16 35  1  0  0  0  0
 19 36  1  0  0  0  0
 20 37  1  0  0  0  0
 21 38  1  0  0  0  0
M  END
> <Molecule Name>
cmp_14

> <mmff94s_NoEstat>
82.22

> <IC50_nM>
1.9

$$$$
cmp_15
  -OEChem-07021816493D

 44 47  0     0  0  0  0  0  0999 V2000
    4.3870    3.0396    5.6466 C   0  0  0  0  0  0  0  0  0  0  0  0
    6.3434    4.5313    4.5708 C   0  0  0  0  0  0  0  0  0  0  0  0
    4.7790    4.2438    6.1948 C   0  0  0  0  0  0  0  0  0  0  0  0
    5.0660    2.6520    4.5095 C   0  0  0  0  0  0  0  0  0  0  0  0
    6.3650    6.3066    9.8454 C   0  0  0  0  0  0  0  0  0  0  0  0
    5.9042    5.4745    8.7603 C   0  0  0  0  0  0  0  0  0  0  0  0
    5.4717    7.0684   10.4751 C   0  0  0  0  0  0  0  0  0  0  0  0
    4.6166    5.4460    8.3677 C   0  0  0  0  0  0  0  0  0  0  0  0
    5.7120    7.9919   11.6043 C   0  0  0  0  0  0  0  0  0  0  0  0
    3.6133    6.3174    9.0959 C   0  0  0  0  0  0  0  0  0  0  0  0
    3.7153    0.5378    4.3368 C   0  0  0  0  0  0  0  0  0  0  0  0
    3.0904   -1.9248    3.9782 C   0  0  0  0  0  0  0  0  0  0  0  0
    4.5521   -1.7937    3.6723 C   0  0  0  0  0  0  0  0  0  0  0  0
    3.6290   -0.6578    3.4216 C   0  0  0  0  0  0  0  0  0  0  0  0
    3.4123    8.0262   11.0065 C   0  0  0  0  0  0  0  0  0  0  0  0
    2.3471    7.3070   11.8377 C   0  0  0  0  0  0  0  0  0  0  0  0
    2.8020    9.1814   10.2090 C   0  0  0  0  0  0  0  0  0  0  0  0
    5.7571    5.0183    5.6811 N   0  0  0  0  0  0  0  0  0  0  0  0
    6.0531    3.3762    3.9424 N   0  0  0  0  0  0  0  0  0  0  0  0
    4.4613    8.5353   11.8852 N   0  0  0  0  0  0  0  0  0  0  0  0
    4.1396    7.0849   10.1256 N   0  0  0  0  0  0  0  0  0  0  0  0
    4.1189    4.6700    7.3430 N   0  0  0  0  0  0  0  0  0  0  0  0
    4.7014    1.4367    3.9183 N   0  0  0  0  0  0  0  0  0  0  0  0
    6.7799    8.2080   12.1467 O   0  0  0  0  0  0  0  0  0  0  0  0
    2.4301    6.3102    8.7610 O   0  0  0  0  0  0  0  0  0  0  0  0
    2.9736    0.6397    5.3086 O   0  0  0  0  0  0  0  0  0  0  0  0
    3.5975    2.4372    6.0816 H   0  0  0  0  0  0  0  0  0  0  0  0
    7.1326    5.1331    4.1372 H   0  0  0  0  0  0  0  0  0  0  0  0
    7.4139    6.2883   10.1145 H   0  0  0  0  0  0  0  0  0  0  0  0
    6.6503    4.8616    8.2635 H   0  0  0  0  0  0  0  0  0  0  0  0
    2.5020   -2.5846    3.3523 H   0  0  0  0  0  0  0  0  0  0  0  0
    2.7890   -1.9079    5.0185 H   0  0  0  0  0  0  0  0  0  0  0  0
    5.2348   -1.6891    4.5068 H   0  0  0  0  0  0  0  0  0  0  0  0
    4.9452   -2.3677    2.8420 H   0  0  0  0  0  0  0  0  0  0  0  0
    3.3950   -0.3870    2.4149 H   0  0  0  0  0  0  0  0  0  0  0  0
    2.8054    6.4922   12.3937 H   0  0  0  0  0  0  0  0  0  0  0  0
    1.5792    6.9059   11.1801 H   0  0  0  0  0  0  0  0  0  0  0  0
    1.8930    8.0073   12.5352 H   0  0  0  0  0  0  0  0  0  0  0  0
    3.5779    9.6750    9.6282 H   0  0  0  0  0  0  0  0  0  0  0  0
    2.3524    9.8993   10.8912 H   0  0  0  0  0  0  0  0  0  0  0  0
    2.0384    8.7980    9.5361 H   0  0  0  0  0  0  0  0  0  0  0  0
    4.2963    9.2134   12.6227 H   0  0  0  0  0  0  0  0  0  0  0  0
    3.1619    4.3931    7.4676 H   0  0  0  0  0  0  0  0  0  0  0  0
    5.2192    1.1720    3.0748 H   0  0  0  0  0  0  0  0  0  0  0  0
  1  3  1  0  0  0  0
  1  4  2  0  0  0  0
  2 18  1  0  0  0  0
  2 19  2  0  0  0  0
  3 18  2  0  0  0  0
  3 22  1  0  0  0  0
  4 19  1  0  0  0  0
  4 23  1  0  0  0  0
  5  6  1  0  0  0  0
  5  7  2  0  0  0  0
  6  8  2  0  0  0  0
  7  9  1  0  0  0  0
  7 21  1  0  0  0  0
  8 10  1  0  0  0  0
  8 22  1  0  0  0  0
  9 20  1  0  0  0  0
  9 24  2  0  0  0  0
 10 21  1  0  0  0  0
 10 25  2  0  0  0  0
 11 14  1  0  0  0  0
 11 23  1  0  0  0  0
 11 26  2  0  0  0  0
 12 13  1  0  0  0  0
 12 14  1  0  0  0  0
 13 14  1  0  0  0  0
 15 16  1  0  0  0  0
 15 17  1  0  0  0  0
 15 20  1  0  0  0  0
 15 21  1  0  0  0  0
  1 27  1  0  0  0  0
  2 28  1  0  0  0  0
  5 29  1  0  0  0  0
  6 30  1  0  0  0  0
 12 31  1  0  0  0  0
 12 32  1  0  0  0  0
 13 33  1  0  0  0  0
 13 34  1  0  0  0  0
 14 35  1  0  0  0  0
 16 36  1  0  0  0  0
 16 37  1  0  0  0  0
 16 38  1  0  0  0  0
 17 39  1  0  0  0  0
 17 40  1  0  0  0  0
 17 41  1  0  0  0  0
 20 42  1  0  0  0  0
 22 43  1  0  0  0  0
 23 44  1  0  0  0  0
M  END
> <Molecule Name>
cmp_15

> <mmff94s_NoEstat>
88.77

> <IC50_nM>
2.7

$$$$
cmp_16
  -OEChem-07021816493D

 44 48  0     0  0  0  0  0  0999 V2000
    3.8771    1.7143    4.3699 C   0  0  0  0  0  0  0  0  0  0  0  0
    4.4825    1.1352    3.2549 C   0  0  0  0  0  0  0  0  0  0  0  0
    1.1980    3.7253    2.7850 C   0  0  0  0  0  0  0  0  0  0  0  0
    2.9128    2.2697    1.8091 C   0  0  0  0  0  0  0  0  0  0  0  0
    0.6393    4.2697    3.9312 C   0  0  0  0  0  0  0  0  0  0  0  0
    2.1376    3.1854    5.2929 C   0  0  0  0  0  0  0  0  0  0  0  0
    5.9218    0.8991    0.3673 C   0  0  0  0  0  0  0  0  0  0  0  0
    2.7810    2.5786    4.2124 C   0  0  0  0  0  0  0  0  0  0  0  0
    2.2910    2.8616    2.9207 C   0  0  0  0  0  0  0  0  0  0  0  0
    4.0014    1.4122    1.9774 C   0  0  0  0  0  0  0  0  0  0  0  0
    4.6293    0.8110    0.8259 C   0  0  0  0  0  0  0  0  0  0  0  0
    4.9176   -0.3788   -1.0211 C   0  0  0  0  0  0  0  0  0  0  0  0
    4.4748   -1.2359   -2.0566 C   0  0  0  0  0  0  0  0  0  0  0  0
    3.2020   -1.6519   -2.0770 C   0  0  0  0  0  0  0  0  0  0  0  0
    2.3397   -1.1639   -0.9802 C   0  0  0  0  0  0  0  0  0  0  0  0
   -1.3032   -1.5424   -0.2776 C   0  0  0  0  0  0  0  0  0  0  0  0
   -0.2025    0.2901   -0.0934 C   0  0  0  0  0  0  0  0  0  0  0  0
   -1.6605   -0.1185    0.1884 C   0  0  0  0  0  0  0  0  0  0  0  0
    0.1925   -1.2066   -0.0646 C   0  0  0  0  0  0  0  0  0  0  0  0
    1.0811    4.0220    5.1827 N   0  0  0  0  0  0  0  0  0  0  0  0
    6.0943    0.1612   -0.7760 N   0  3  0  0  0  0  0  0  0  0  0  0
    2.6783   -0.3816   -0.0065 N   0  0  0  0  0  0  0  0  0  0  0  0
    3.9878   -0.0086   -0.0646 N   0  0  0  0  0  0  0  0  0  0  0  0
   -1.8729   -0.1367    1.6355 N   0  3  0  0  0  0  0  0  0  0  0  0
    1.0857   -1.6443   -1.1028 O   0  0  0  0  0  0  0  0  0  0  0  0
    4.2658    1.4882    5.3602 H   0  0  0  0  0  0  0  0  0  0  0  0
    5.3290    0.4681    3.3997 H   0  0  0  0  0  0  0  0  0  0  0  0
    0.7868    3.9728    1.8111 H   0  0  0  0  0  0  0  0  0  0  0  0
    2.5412    2.4821    0.8072 H   0  0  0  0  0  0  0  0  0  0  0  0
   -0.2091    4.9435    3.8672 H   0  0  0  0  0  0  0  0  0  0  0  0
    2.4639    3.0095    6.3145 H   0  0  0  0  0  0  0  0  0  0  0  0
    6.7407    1.4567    0.7994 H   0  0  0  0  0  0  0  0  0  0  0  0
    5.1720   -1.5496   -2.8252 H   0  0  0  0  0  0  0  0  0  0  0  0
    2.8089   -2.3072   -2.8427 H   0  0  0  0  0  0  0  0  0  0  0  0
   -1.6909   -2.3745    0.3189 H   0  0  0  0  0  0  0  0  0  0  0  0
   -1.5605   -1.7302   -1.3275 H   0  0  0  0  0  0  0  0  0  0  0  0
   -0.0671    0.7554   -1.0777 H   0  0  0  0  0  0  0  0  0  0  0  0
    0.2909    0.9239    0.6504 H   0  0  0  0  0  0  0  0  0  0  0  0
   -2.4327    0.4027   -0.3816 H   0  0  0  0  0  0  0  0  0  0  0  0
    0.5665   -1.5329    0.9120 H   0  0  0  0  0  0  0  0  0  0  0  0
   -1.3843   -0.9303    1.9981 H   0  0  0  0  0  0  0  0  0  0  0  0
   -2.8493   -0.2146    1.8370 H   0  0  0  0  0  0  0  0  0  0  0  0
    6.9336    0.0556   -1.3094 H   0  0  0  0  0  0  0  0  0  0  0  0
   -1.5141    0.7023    2.0446 H   0  0  0  0  0  0  0  0  0  0  0  0
  1  2  2  0  0  0  0
  1  8  1  0  0  0  0
  2 10  1  0  0  0  0
  3  5  1  0  0  0  0
  3  9  2  0  0  0  0
  4  9  1  0  0  0  0
  4 10  2  0  0  0  0
  5 20  2  0  0  0  0
  6  8  2  0  0  0  0
  6 20  1  0  0  0  0
  7 11  2  0  0  0  0
  7 21  1  0  0  0  0
  8  9  1  0  0  0  0
 10 11  1  0  0  0  0
 11 23  1  0  0  0  0
 12 13  1  0  0  0  0
 12 21  2  0  0  0  0
 12 23  1  0  0  0  0
 13 14  2  0  0  0  0
 14 15  1  0  0  0  0
 15 22  2  0  0  0  0
 15 25  1  0  0  0  0
 16 18  1  0  0  0  0
 16 19  1  0  0  0  0
 17 18  1  0  0  0  0
 17 19  1  0  0  0  0
 18 24  1  0  0  0  0
 19 25  1  0  0  0  0
 22 23  1  0  0  0  0
  1 26  1  0  0  0  0
  2 27  1  0  0  0  0
  3 28  1  0  0  0  0
  4 29  1  0  0  0  0
  5 30  1  0  0  0  0
  6 31  1  0  0  0  0
  7 32  1  0  0  0  0
 13 33  1  0  0  0  0
 14 34  1  0  0  0  0
 16 35  1  0  0  0  0
 16 36  1  0  0  0  0
 17 37  1  0  0  0  0
 17 38  1  0  0  0  0
 18 39  1  0  0  0  0
 19 40  1  0  0  0  0
 24 41  1  0  0  0  0
 24 42  1  0  0  0  0
 21 43  1  0  0  0  0
 24 44  1  0  0  0  0
M  CHG  2  21   1  24   1
M  END
> <Molecule Name>
cmp_16

> <mmff94s_NoEstat>
74.58

> <IC50_nM>
1.5

$$$$
cmp_17
  -OEChem-07021816493D

 51 55  0     0  0  0  0  0  0999 V2000
    2.8120   -4.9360    2.9685 C   0  0  0  0  0  0  0  0  0  0  0  0
    4.8959   -3.3094    3.4392 C   0  0  0  0  0  0  0  0  0  0  0  0
    2.8659   -3.6487    2.4742 C   0  0  0  0  0  0  0  0  0  0  0  0
    3.8989   -5.3328    3.7203 C   0  0  0  0  0  0  0  0  0  0  0  0
    1.3785   -0.9766    2.5373 C   0  0  0  0  0  0  0  0  0  0  0  0
    0.2695    0.6513    1.1805 C   0  0  0  0  0  0  0  0  0  0  0  0
    1.3075   -1.9242    1.5850 C   0  0  0  0  0  0  0  0  0  0  0  0
    0.8508    0.3555    2.3469 C   0  0  0  0  0  0  0  0  0  0  0  0
   -0.3450    1.9278    0.7340 C   0  0  0  0  0  0  0  0  0  0  0  0
    0.6468   -1.5833    0.2698 C   0  0  0  0  0  0  0  0  0  0  0  0
    2.8963   -7.6077    4.1002 C   0  0  0  0  0  0  0  0  0  0  0  0
   -1.6020    0.1171   -3.7689 C   0  0  0  0  0  0  0  0  0  0  0  0
   -2.5367    0.1264   -2.5636 C   0  0  0  0  0  0  0  0  0  0  0  0
   -0.3088    0.8756   -3.4883 C   0  0  0  0  0  0  0  0  0  0  0  0
    2.6717  -10.1537    4.3258 C   0  0  0  0  0  0  0  0  0  0  0  0
    4.1233   -9.8599    4.0940 C   0  0  0  0  0  0  0  0  0  0  0  0
   -1.8468   -0.4114   -1.3092 C   0  0  0  0  0  0  0  0  0  0  0  0
    0.3991    0.3438   -2.2413 C   0  0  0  0  0  0  0  0  0  0  0  0
    3.2666   -8.8836    4.8139 C   0  0  0  0  0  0  0  0  0  0  0  0
   -0.5216    0.3144   -1.0059 C   0  0  0  0  0  0  0  0  0  0  0  0
    3.8963   -2.8051    2.6909 N   0  0  0  0  0  0  0  0  0  0  0  0
    4.9621   -4.5426    3.9764 N   0  0  0  0  0  0  0  0  0  0  0  0
   -0.7934    1.6771   -0.5567 N   0  0  0  0  0  0  0  0  0  0  0  0
    0.1658   -0.2838    0.1664 N   0  0  0  0  0  0  0  0  0  0  0  0
    1.7885   -3.2099    1.7112 N   0  0  0  0  0  0  0  0  0  0  0  0
    3.8879   -6.6317    4.2419 N   0  0  0  0  0  0  0  0  0  0  0  0
   -0.4313    2.9627    1.3691 O   0  0  0  0  0  0  0  0  0  0  0  0
    0.5678   -2.4345   -0.6145 O   0  0  0  0  0  0  0  0  0  0  0  0
    1.8374   -7.5151    3.4879 O   0  0  0  0  0  0  0  0  0  0  0  0
    1.0111    1.4721    3.6481 Cl  0  0  0  0  0  0  0  0  0  0  0  0
    1.9701   -5.5923    2.7788 H   0  0  0  0  0  0  0  0  0  0  0  0
    5.7362   -2.6531    3.6292 H   0  0  0  0  0  0  0  0  0  0  0  0
    1.8477   -1.2051    3.4907 H   0  0  0  0  0  0  0  0  0  0  0  0
   -1.3650   -0.9197   -4.0379 H   0  0  0  0  0  0  0  0  0  0  0  0
   -2.1099    0.5623   -4.6318 H   0  0  0  0  0  0  0  0  0  0  0  0
   -2.8943    1.1473   -2.3838 H   0  0  0  0  0  0  0  0  0  0  0  0
   -3.4216   -0.4822   -2.7822 H   0  0  0  0  0  0  0  0  0  0  0  0
    0.3606    0.7896   -4.3519 H   0  0  0  0  0  0  0  0  0  0  0  0
   -0.5280    1.9430   -3.3660 H   0  0  0  0  0  0  0  0  0  0  0  0
    2.0131  -10.1481    3.4658 H   0  0  0  0  0  0  0  0  0  0  0  0
    2.4198  -10.8916    5.0778 H   0  0  0  0  0  0  0  0  0  0  0  0
    4.8488  -10.4005    4.6896 H   0  0  0  0  0  0  0  0  0  0  0  0
    4.4394   -9.6593    3.0775 H   0  0  0  0  0  0  0  0  0  0  0  0
   -2.5334   -0.3287   -0.4568 H   0  0  0  0  0  0  0  0  0  0  0  0
   -1.6656   -1.4834   -1.4533 H   0  0  0  0  0  0  0  0  0  0  0  0
    0.7661   -0.6656   -2.4627 H   0  0  0  0  0  0  0  0  0  0  0  0
    1.2881    0.9563   -2.0428 H   0  0  0  0  0  0  0  0  0  0  0  0
    3.4062   -8.7402    5.8634 H   0  0  0  0  0  0  0  0  0  0  0  0
   -1.2637    2.3761   -1.1234 H   0  0  0  0  0  0  0  0  0  0  0  0
    1.2798   -3.8908    1.1770 H   0  0  0  0  0  0  0  0  0  0  0  0
    4.7065   -6.9027    4.7953 H   0  0  0  0  0  0  0  0  0  0  0  0
  1  3  1  0  0  0  0
  1  4  2  0  0  0  0
  2 21  1  0  0  0  0
  2 22  2  0  0  0  0
  3 21  2  0  0  0  0
  3 25  1  0  0  0  0
  4 22  1  0  0  0  0
  4 26  1  0  0  0  0
  5  7  2  0  0  0  0
  5  8  1  0  0  0  0
  6  8  2  0  0  0  0
  6  9  1  0  0  0  0
  6 24  1  0  0  0  0
  7 10  1  0  0  0  0
  7 25  1  0  0  0  0
  8 30  1  0  0  0  0
  9 23  1  0  0  0  0
  9 27  2  0  0  0  0
 10 24  1  0  0  0  0
 10 28  2  0  0  0  0
 11 19  1  0  0  0  0
 11 26  1  0  0  0  0
 11 29  2  0  0  0  0
 12 13  1  0  0  0  0
 12 14  1  0  0  0  0
 13 17  1  0  0  0  0
 14 18  1  0  0  0  0
 15 16  1  0  0  0  0
 15 19  1  0  0  0  0
 16 19  1  0  0  0  0
 17 20  1  0  0  0  0
 18 20  1  0  0  0  0
 20 23  1  0  0  0  0
 20 24  1  0  0  0  0
  1 31  1  0  0  0  0
  2 32  1  0  0  0  0
  5 33  1  0  0  0  0
 12 34  1  0  0  0  0
 12 35  1  0  0  0  0
 13 36  1  0  0  0  0
 13 37  1  0  0  0  0
 14 38  1  0  0  0  0
 14 39  1  0  0  0  0
 15 40  1  0  0  0  0
 15 41  1  0  0  0  0
 16 42  1  0  0  0  0
 16 43  1  0  0  0  0
 17 44  1  0  0  0  0
 17 45  1  0  0  0  0
 18 46  1  0  0  0  0
 18 47  1  0  0  0  0
 19 48  1  0  0  0  0
 23 49  1  0  0  0  0
 25 50  1  0  0  0  0
 26 51  1  0  0  0  0
M  END
> <Molecule Name>
cmp_17

> <mmff94s_NoEstat>
90.30

> <IC50_nM>
0.51

$$$$
cmp_18
  -OEChem-07021816493D

 42 45  0     0  0  0  0  0  0999 V2000
    2.8122   -4.9359    2.9686 C   0  0  0  0  0  0  0  0  0  0  0  0
    4.8966   -3.3095    3.4377 C   0  0  0  0  0  0  0  0  0  0  0  0
    3.8995   -5.3327    3.7200 C   0  0  0  0  0  0  0  0  0  0  0  0
    2.8659   -3.6487    2.4742 C   0  0  0  0  0  0  0  0  0  0  0  0
    1.3785   -0.9766    2.5373 C   0  0  0  0  0  0  0  0  0  0  0  0
    0.2695    0.6513    1.1805 C   0  0  0  0  0  0  0  0  0  0  0  0
    1.3075   -1.9242    1.5850 C   0  0  0  0  0  0  0  0  0  0  0  0
    0.8508    0.3555    2.3469 C   0  0  0  0  0  0  0  0  0  0  0  0
   -0.3450    1.9278    0.7340 C   0  0  0  0  0  0  0  0  0  0  0  0
    0.6468   -1.5833    0.2698 C   0  0  0  0  0  0  0  0  0  0  0  0
   -1.6020    0.1171   -3.7689 C   0  0  0  0  0  0  0  0  0  0  0  0
   -2.5367    0.1264   -2.5636 C   0  0  0  0  0  0  0  0  0  0  0  0
   -0.3088    0.8756   -3.4883 C   0  0  0  0  0  0  0  0  0  0  0  0
   -1.8468   -0.4114   -1.3092 C   0  0  0  0  0  0  0  0  0  0  0  0
    0.3991    0.3438   -2.2413 C   0  0  0  0  0  0  0  0  0  0  0  0
   -0.5216    0.3144   -1.0059 C   0  0  0  0  0  0  0  0  0  0  0  0
    4.9628   -4.5424    3.9753 N   0  0  0  0  0  0  0  0  0  0  0  0
    3.8964   -2.8050    2.6902 N   0  0  0  0  0  0  0  0  0  0  0  0
   -0.7934    1.6771   -0.5567 N   0  0  0  0  0  0  0  0  0  0  0  0
    0.1658   -0.2838    0.1664 N   0  0  0  0  0  0  0  0  0  0  0  0
    3.8838   -6.6476    4.2464 N   0  0  0  0  0  0  0  0  0  0  0  0
    1.7885   -3.2099    1.7112 N   0  0  0  0  0  0  0  0  0  0  0  0
   -0.4313    2.9627    1.3691 O   0  0  0  0  0  0  0  0  0  0  0  0
    0.5678   -2.4345   -0.6145 O   0  0  0  0  0  0  0  0  0  0  0  0
    1.0111    1.4721    3.6481 Cl  0  0  0  0  0  0  0  0  0  0  0  0
    1.9708   -5.5925    2.7791 H   0  0  0  0  0  0  0  0  0  0  0  0
    5.7374   -2.6535    3.6268 H   0  0  0  0  0  0  0  0  0  0  0  0
    1.8477   -1.2051    3.4907 H   0  0  0  0  0  0  0  0  0  0  0  0
   -1.3650   -0.9197   -4.0379 H   0  0  0  0  0  0  0  0  0  0  0  0
   -2.1099    0.5623   -4.6318 H   0  0  0  0  0  0  0  0  0  0  0  0
   -2.8943    1.1473   -2.3838 H   0  0  0  0  0  0  0  0  0  0  0  0
   -3.4216   -0.4822   -2.7822 H   0  0  0  0  0  0  0  0  0  0  0  0
    0.3606    0.7896   -4.3519 H   0  0  0  0  0  0  0  0  0  0  0  0
   -0.5280    1.9430   -3.3660 H   0  0  0  0  0  0  0  0  0  0  0  0
   -2.5334   -0.3287   -0.4568 H   0  0  0  0  0  0  0  0  0  0  0  0
   -1.6656   -1.4834   -1.4533 H   0  0  0  0  0  0  0  0  0  0  0  0
    0.7661   -0.6656   -2.4627 H   0  0  0  0  0  0  0  0  0  0  0  0
    1.2881    0.9563   -2.0428 H   0  0  0  0  0  0  0  0  0  0  0  0
   -1.2637    2.3761   -1.1234 H   0  0  0  0  0  0  0  0  0  0  0  0
    3.0784   -7.2163    4.0983 H   0  0  0  0  0  0  0  0  0  0  0  0
    4.6359   -6.9411    4.8314 H   0  0  0  0  0  0  0  0  0  0  0  0
    1.2798   -3.8908    1.1770 H   0  0  0  0  0  0  0  0  0  0  0  0
  1  3  2  0  0  0  0
  1  4  1  0  0  0  0
  2 17  2  0  0  0  0
  2 18  1  0  0  0  0
  3 17  1  0  0  0  0
  3 21  1  0  0  0  0
  4 18  2  0  0  0  0
  4 22  1  0  0  0  0
  5  7  2  0  0  0  0
  5  8  1  0  0  0  0
  6  8  2  0  0  0  0
  6  9  1  0  0  0  0
  6 20  1  0  0  0  0
  7 10  1  0  0  0  0
  7 22  1  0  0  0  0
  8 25  1  0  0  0  0
  9 19  1  0  0  0  0
  9 23  2  0  0  0  0
 10 20  1  0  0  0  0
 10 24  2  0  0  0  0
 11 12  1  0  0  0  0
 11 13  1  0  0  0  0
 12 14  1  0  0  0  0
 13 15  1  0  0  0  0
 14 16  1  0  0  0  0
 15 16  1  0  0  0  0
 16 19  1  0  0  0  0
 16 20  1  0  0  0  0
  1 26  1  0  0  0  0
  2 27  1  0  0  0  0
  5 28  1  0  0  0  0
 11 29  1  0  0  0  0
 11 30  1  0  0  0  0
 12 31  1  0  0  0  0
 12 32  1  0  0  0  0
 13 33  1  0  0  0  0
 13 34  1  0  0  0  0
 14 35  1  0  0  0  0
 14 36  1  0  0  0  0
 15 37  1  0  0  0  0
 15 38  1  0  0  0  0
 19 39  1  0  0  0  0
 21 40  1  0  0  0  0
 21 41  1  0  0  0  0
 22 42  1  0  0  0  0
M  END
> <Molecule Name>
cmp_18

> <mmff94s_NoEstat>
78.63

> <IC50_nM>
0.65

$$$$
cmp_19
  -OEChem-07021816493D

 45 48  0     0  0  0  0  0  0999 V2000
    5.0545   -2.6797    2.8728 C   0  0  0  0  0  0  0  0  0  0  0  0
    5.6181   -3.8520    0.5238 C   0  0  0  0  0  0  0  0  0  0  0  0
    6.1875   -3.4452    2.6865 C   0  0  0  0  0  0  0  0  0  0  0  0
    4.2302   -2.5559    1.7730 C   0  0  0  0  0  0  0  0  0  0  0  0
    3.0068   -0.4718   -0.1023 C   0  0  0  0  0  0  0  0  0  0  0  0
    2.2746    0.3004   -1.0929 C   0  0  0  0  0  0  0  0  0  0  0  0
    0.9512    0.4268   -0.9211 C   0  0  0  0  0  0  0  0  0  0  0  0
    2.4201   -1.0557    0.9568 C   0  0  0  0  0  0  0  0  0  0  0  0
   -0.0388    1.1504   -1.7616 C   0  0  0  0  0  0  0  0  0  0  0  0
    0.9310   -0.9015    1.1320 C   0  0  0  0  0  0  0  0  0  0  0  0
   -3.9159   -0.0612    1.1744 C   0  0  0  0  0  0  0  0  0  0  0  0
   -3.4986   -0.8592   -0.0566 C   0  0  0  0  0  0  0  0  0  0  0  0
   -3.1234    1.2357    1.3039 C   0  0  0  0  0  0  0  0  0  0  0  0
   -1.9939   -1.1326   -0.0697 C   0  0  0  0  0  0  0  0  0  0  0  0
   -1.6157    0.9789    1.3025 C   0  0  0  0  0  0  0  0  0  0  0  0
   -1.1575    0.1528    0.0847 C   0  0  0  0  0  0  0  0  0  0  0  0
    3.1028    0.8704   -2.2045 C   0  0  0  0  0  0  0  0  0  0  0  0
    6.5015   -4.0481    1.5211 N   0  0  0  0  0  0  0  0  0  0  0  0
    4.4823   -3.1305    0.5787 N   0  0  0  0  0  0  0  0  0  0  0  0
   -1.2594    0.9583   -1.1273 N   0  0  0  0  0  0  0  0  0  0  0  0
    0.2940   -0.1511    0.1522 N   0  0  0  0  0  0  0  0  0  0  0  0
    7.0608   -3.5974    3.7912 N   0  0  0  0  0  0  0  0  0  0  0  0
    3.0768   -1.7916    1.9196 N   0  0  0  0  0  0  0  0  0  0  0  0
    0.1759    1.7758   -2.7834 O   0  0  0  0  0  0  0  0  0  0  0  0
    0.3701   -1.4249    2.0934 O   0  0  0  0  0  0  0  0  0  0  0  0
    4.8269   -2.2065    3.8211 H   0  0  0  0  0  0  0  0  0  0  0  0
    5.8454   -4.3251   -0.4237 H   0  0  0  0  0  0  0  0  0  0  0  0
    4.0804   -0.5700   -0.2438 H   0  0  0  0  0  0  0  0  0  0  0  0
   -4.9865    0.1661    1.1205 H   0  0  0  0  0  0  0  0  0  0  0  0
   -3.7643   -0.6718    2.0730 H   0  0  0  0  0  0  0  0  0  0  0  0
   -4.0422   -1.8108   -0.0775 H   0  0  0  0  0  0  0  0  0  0  0  0
   -3.7864   -0.3131   -0.9629 H   0  0  0  0  0  0  0  0  0  0  0  0
   -3.3871    1.9114    0.4816 H   0  0  0  0  0  0  0  0  0  0  0  0
   -3.4056    1.7457    2.2321 H   0  0  0  0  0  0  0  0  0  0  0  0
   -1.7681   -1.8304    0.7456 H   0  0  0  0  0  0  0  0  0  0  0  0
   -1.7303   -1.6526   -0.9996 H   0  0  0  0  0  0  0  0  0  0  0  0
   -1.0865    1.9400    1.3351 H   0  0  0  0  0  0  0  0  0  0  0  0
   -1.3589    0.4566    2.2318 H   0  0  0  0  0  0  0  0  0  0  0  0
    3.1510    0.1575   -3.0250 H   0  0  0  0  0  0  0  0  0  0  0  0
    4.1081    1.0759   -1.8416 H   0  0  0  0  0  0  0  0  0  0  0  0
    2.6540    1.7981   -2.5542 H   0  0  0  0  0  0  0  0  0  0  0  0
   -2.1346    1.3402   -1.4724 H   0  0  0  0  0  0  0  0  0  0  0  0
    6.8546   -3.1143    4.6386 H   0  0  0  0  0  0  0  0  0  0  0  0
    7.9092   -4.1065    3.6679 H   0  0  0  0  0  0  0  0  0  0  0  0
    2.6487   -1.7524    2.8268 H   0  0  0  0  0  0  0  0  0  0  0  0
  1  3  2  0  0  0  0
  1  4  1  0  0  0  0
  2 18  2  0  0  0  0
  2 19  1  0  0  0  0
  3 18  1  0  0  0  0
  3 22  1  0  0  0  0
  4 19  2  0  0  0  0
  4 23  1  0  0  0  0
  5  6  1  0  0  0  0
  5  8  2  0  0  0  0
  6  7  2  0  0  0  0
  6 17  1  0  0  0  0
  7  9  1  0  0  0  0
  7 21  1  0  0  0  0
  8 10  1  0  0  0  0
  8 23  1  0  0  0  0
  9 20  1  0  0  0  0
  9 24  2  0  0  0  0
 10 21  1  0  0  0  0
 10 25  2  0  0  0  0
 11 12  1  0  0  0  0
 11 13  1  0  0  0  0
 12 14  1  0  0  0  0
 13 15  1  0  0  0  0
 14 16  1  0  0  0  0
 15 16  1  0  0  0  0
 16 20  1  0  0  0  0
 16 21  1  0  0  0  0
  1 26  1  0  0  0  0
  2 27  1  0  0  0  0
  5 28  1  0  0  0  0
 11 29  1  0  0  0  0
 11 30  1  0  0  0  0
 12 31  1  0  0  0  0
 12 32  1  0  0  0  0
 13 33  1  0  0  0  0
 13 34  1  0  0  0  0
 14 35  1  0  0  0  0
 14 36  1  0  0  0  0
 15 37  1  0  0  0  0
 15 38  1  0  0  0  0
 17 39  1  0  0  0  0
 17 40  1  0  0  0  0
 17 41  1  0  0  0  0
 20 42  1  0  0  0  0
 22 43  1  0  0  0  0
 22 44  1  0  0  0  0
 23 45  1  0  0  0  0
M  END
> <Molecule Name>
cmp_19

> <mmff94s_NoEstat>
81.19

> <IC50_nM>
2.4

$$$$
cmp_20
  -OEChem-07021816493D

 35 37  0     0  0  0  0  0  0999 V2000
    5.7693    1.4196    0.1310 C   0  0  0  0  0  0  0  0  0  0  0  0
    6.0120   -0.8135    1.6022 C   0  0  0  0  0  0  0  0  0  0  0  0
    6.9989    0.9008    0.4821 C   0  0  0  0  0  0  0  0  0  0  0  0
    4.6726    0.7158    0.5851 C   0  0  0  0  0  0  0  0  0  0  0  0
    2.1853   -0.7715   -0.3954 C   0  0  0  0  0  0  0  0  0  0  0  0
   -0.2037   -0.8253   -0.2874 C   0  0  0  0  0  0  0  0  0  0  0  0
    2.2501    0.4927    0.0608 C   0  0  0  0  0  0  0  0  0  0  0  0
    0.9312   -1.4674   -0.5797 C   0  0  0  0  0  0  0  0  0  0  0  0
   -1.6095   -1.3004   -0.3841 C   0  0  0  0  0  0  0  0  0  0  0  0
    0.9628    1.2126    0.3878 C   0  0  0  0  0  0  0  0  0  0  0  0
   -1.5827    0.9316    0.4203 C   0  0  0  0  0  0  0  0  0  0  0  0
   -1.9455    2.1188   -0.4757 C   0  0  0  0  0  0  0  0  0  0  0  0
   -1.8201    1.2629    1.8960 C   0  0  0  0  0  0  0  0  0  0  0  0
    7.1576   -0.2179    1.2195 N   0  0  0  0  0  0  0  0  0  0  0  0
    4.7577   -0.4089    1.3256 N   0  0  0  0  0  0  0  0  0  0  0  0
   -2.3815   -0.2260    0.0446 N   0  0  0  0  0  0  0  0  0  0  0  0
   -0.1956    0.4755    0.1823 N   0  0  0  0  0  0  0  0  0  0  0  0
    8.1508    1.5936    0.0356 N   0  0  0  0  0  0  0  0  0  0  0  0
    3.4138    1.2062    0.2523 N   0  0  0  0  0  0  0  0  0  0  0  0
   -1.9898   -2.3946   -0.7582 O   0  0  0  0  0  0  0  0  0  0  0  0
    0.9931    2.3695    0.8043 O   0  0  0  0  0  0  0  0  0  0  0  0
    0.9919   -3.0845   -1.1679 Cl  0  0  0  0  0  0  0  0  0  0  0  0
    5.6713    2.3211   -0.4629 H   0  0  0  0  0  0  0  0  0  0  0  0
    6.1099   -1.7142    2.1958 H   0  0  0  0  0  0  0  0  0  0  0  0
    3.1011   -1.3040   -0.6385 H   0  0  0  0  0  0  0  0  0  0  0  0
   -1.7684    1.8586   -1.5167 H   0  0  0  0  0  0  0  0  0  0  0  0
   -1.3330    2.9773   -0.2105 H   0  0  0  0  0  0  0  0  0  0  0  0
   -2.9950    2.3705   -0.3415 H   0  0  0  0  0  0  0  0  0  0  0  0
   -1.5554    0.4053    2.5102 H   0  0  0  0  0  0  0  0  0  0  0  0
   -2.8684    1.5067    2.0517 H   0  0  0  0  0  0  0  0  0  0  0  0
   -1.2064    2.1138    2.1828 H   0  0  0  0  0  0  0  0  0  0  0  0
   -3.3957   -0.2468    0.0908 H   0  0  0  0  0  0  0  0  0  0  0  0
    8.0359    2.3933   -0.5486 H   0  0  0  0  0  0  0  0  0  0  0  0
    9.0500    1.2125    0.2364 H   0  0  0  0  0  0  0  0  0  0  0  0
    3.3106    2.1972    0.1298 H   0  0  0  0  0  0  0  0  0  0  0  0
  1  3  2  0  0  0  0
  1  4  1  0  0  0  0
  2 14  2  0  0  0  0
  2 15  1  0  0  0  0
  3 14  1  0  0  0  0
  3 18  1  0  0  0  0
  4 15  2  0  0  0  0
  4 19  1  0  0  0  0
  5  7  2  0  0  0  0
  5  8  1  0  0  0  0
  6  8  2  0  0  0  0
  6  9  1  0  0  0  0
  6 17  1  0  0  0  0
  7 10  1  0  0  0  0
  7 19  1  0  0  0  0
  8 22  1  0  0  0  0
  9 16  1  0  0  0  0
  9 20  2  0  0  0  0
 10 17  1  0  0  0  0
 10 21  2  0  0  0  0
 11 12  1  0  0  0  0
 11 13  1  0  0  0  0
 11 16  1  0  0  0  0
 11 17  1  0  0  0  0
  1 23  1  0  0  0  0
  2 24  1  0  0  0  0
  5 25  1  0  0  0  0
 12 26  1  0  0  0  0
 12 27  1  0  0  0  0
 12 28  1  0  0  0  0
 13 29  1  0  0  0  0
 13 30  1  0  0  0  0
 13 31  1  0  0  0  0
 16 32  1  0  0  0  0
 18 33  1  0  0  0  0
 18 34  1  0  0  0  0
 19 35  1  0  0  0  0
M  END
> <Molecule Name>
cmp_20

> <mmff94s_NoEstat>
79.08

> <IC50_nM>
2.2

$$$$
cmp_21
  -OEChem-07021816493D

 39 42  0     0  0  0  0  0  0999 V2000
    4.2732    4.3394    1.0552 C   0  0  0  0  0  0  0  0  0  0  0  0
    4.2965    4.7365   -1.6003 C   0  0  0  0  0  0  0  0  0  0  0  0
    5.1590    5.2071    0.4495 C   0  0  0  0  0  0  0  0  0  0  0  0
    3.4001    3.6893    0.2071 C   0  0  0  0  0  0  0  0  0  0  0  0
    2.5457    0.8950   -0.7003 C   0  0  0  0  0  0  0  0  0  0  0  0
    0.6936   -0.6133   -0.8305 C   0  0  0  0  0  0  0  0  0  0  0  0
    1.9416    1.6729    0.2165 C   0  0  0  0  0  0  0  0  0  0  0  0
    1.9198   -0.2873   -1.2498 C   0  0  0  0  0  0  0  0  0  0  0  0
   -0.1646   -1.7628   -1.2222 C   0  0  0  0  0  0  0  0  0  0  0  0
    0.5586    1.2934    0.6909 C   0  0  0  0  0  0  0  0  0  0  0  0
   -3.5484    0.1471    1.0213 C   0  0  0  0  0  0  0  0  0  0  0  0
   -2.7665   -0.0810    2.3035 C   0  0  0  0  0  0  0  0  0  0  0  0
   -2.4614    0.5059    0.0181 C   0  0  0  0  0  0  0  0  0  0  0  0
   -1.5084   -0.8233    1.8568 C   0  0  0  0  0  0  0  0  0  0  0  0
   -1.2979   -0.4334    0.3792 C   0  0  0  0  0  0  0  0  0  0  0  0
    5.1986    5.4305   -0.8804 N   0  0  0  0  0  0  0  0  0  0  0  0
    3.3838    3.8649   -1.1305 N   0  0  0  0  0  0  0  0  0  0  0  0
   -1.3235   -1.6164   -0.4678 N   0  0  0  0  0  0  0  0  0  0  0  0
    0.0254    0.1521    0.1067 N   0  0  0  0  0  0  0  0  0  0  0  0
    6.0728    5.8950    1.2851 N   0  0  0  0  0  0  0  0  0  0  0  0
    2.4902    2.8054    0.7788 N   0  0  0  0  0  0  0  0  0  0  0  0
    0.1008   -2.6359   -2.0278 O   0  0  0  0  0  0  0  0  0  0  0  0
   -0.0126    1.9785    1.5379 O   0  0  0  0  0  0  0  0  0  0  0  0
    2.8074   -1.1969   -2.4114 Cl  0  0  0  0  0  0  0  0  0  0  0  0
    4.2638    4.1790    2.1273 H   0  0  0  0  0  0  0  0  0  0  0  0
    4.3060    4.8966   -2.6715 H   0  0  0  0  0  0  0  0  0  0  0  0
    3.5422    1.1506   -1.0512 H   0  0  0  0  0  0  0  0  0  0  0  0
   -4.0618   -0.7726    0.7173 H   0  0  0  0  0  0  0  0  0  0  0  0
   -4.2950    0.9396    1.1249 H   0  0  0  0  0  0  0  0  0  0  0  0
   -2.4918    0.8814    2.7516 H   0  0  0  0  0  0  0  0  0  0  0  0
   -3.3384   -0.6464    3.0451 H   0  0  0  0  0  0  0  0  0  0  0  0
   -2.8083    0.3878   -1.0141 H   0  0  0  0  0  0  0  0  0  0  0  0
   -2.1872    1.5587    0.1512 H   0  0  0  0  0  0  0  0  0  0  0  0
   -0.6611   -0.5651    2.5008 H   0  0  0  0  0  0  0  0  0  0  0  0
   -1.6711   -1.9035    1.9607 H   0  0  0  0  0  0  0  0  0  0  0  0
   -2.1124   -2.2530   -0.5268 H   0  0  0  0  0  0  0  0  0  0  0  0
    6.0137    5.7667    2.2721 H   0  0  0  0  0  0  0  0  0  0  0  0
    6.6908    6.5622    0.8764 H   0  0  0  0  0  0  0  0  0  0  0  0
    2.1768    2.9903    1.7145 H   0  0  0  0  0  0  0  0  0  0  0  0
  1  3  1  0  0  0  0
  1  4  2  0  0  0  0
  2 16  1  0  0  0  0
  2 17  2  0  0  0  0
  3 16  2  0  0  0  0
  3 20  1  0  0  0  0
  4 17  1  0  0  0  0
  4 21  1  0  0  0  0
  5  7  2  0  0  0  0
  5  8  1  0  0  0  0
  6  8  2  0  0  0  0
  6  9  1  0  0  0  0
  6 19  1  0  0  0  0
  7 10  1  0  0  0  0
  7 21  1  0  0  0  0
  8 24  1  0  0  0  0
  9 18  1  0  0  0  0
  9 22  2  0  0  0  0
 10 19  1  0  0  0  0
 10 23  2  0  0  0  0
 11 12  1  0  0  0  0
 11 13  1  0  0  0  0
 12 14  1  0  0  0  0
 13 15  1  0  0  0  0
 14 15  1  0  0  0  0
 15 18  1  0  0  0  0
 15 19  1  0  0  0  0
  1 25  1  0  0  0  0
  2 26  1  0  0  0  0
  5 27  1  0  0  0  0
 11 28  1  0  0  0  0
 11 29  1  0  0  0  0
 12 30  1  0  0  0  0
 12 31  1  0  0  0  0
 13 32  1  0  0  0  0
 13 33  1  0  0  0  0
 14 34  1  0  0  0  0
 14 35  1  0  0  0  0
 18 36  1  0  0  0  0
 20 37  1  0  0  0  0
 20 38  1  0  0  0  0
 21 39  1  0  0  0  0
M  END
> <Molecule Name>
cmp_21

> <mmff94s_NoEstat>
83.61

> <IC50_nM>
0.88

$$$$
cmp_22
  -OEChem-07021816493D

 45 48  0     0  0  0  0  0  0999 V2000
   -2.7981    5.6809    2.1344 C   0  0  0  0  0  0  0  0  0  0  0  0
   -0.9316    5.8520    4.0570 C   0  0  0  0  0  0  0  0  0  0  0  0
   -2.7525    6.7360    3.0226 C   0  0  0  0  0  0  0  0  0  0  0  0
   -1.8219    4.7195    2.2986 C   0  0  0  0  0  0  0  0  0  0  0  0
    0.4930    3.3574    0.8345 C   0  0  0  0  0  0  0  0  0  0  0  0
    1.5953    2.5359    0.3615 C   0  0  0  0  0  0  0  0  0  0  0  0
    1.3269    1.2573    0.0616 C   0  0  0  0  0  0  0  0  0  0  0  0
   -0.7601    2.8938    0.9824 C   0  0  0  0  0  0  0  0  0  0  0  0
    2.2434    0.1988   -0.4383 C   0  0  0  0  0  0  0  0  0  0  0  0
   -1.0414    1.4535    0.6381 C   0  0  0  0  0  0  0  0  0  0  0  0
   -0.8572   -0.9431   -1.4292 C   0  0  0  0  0  0  0  0  0  0  0  0
   -0.3284   -1.6177    0.9715 C   0  0  0  0  0  0  0  0  0  0  0  0
   -0.9372   -2.4197   -1.8181 C   0  0  0  0  0  0  0  0  0  0  0  0
   -0.4118   -3.0901    0.5676 C   0  0  0  0  0  0  0  0  0  0  0  0
    0.0549   -0.7027   -0.2092 C   0  0  0  0  0  0  0  0  0  0  0  0
   -1.3203   -3.2887   -0.6330 C   0  0  0  0  0  0  0  0  0  0  0  0
    2.9198    3.2308    0.2648 C   0  0  0  0  0  0  0  0  0  0  0  0
   -1.8297    6.8538    3.9998 N   0  0  0  0  0  0  0  0  0  0  0  0
   -0.8695    4.7736    3.2527 N   0  0  0  0  0  0  0  0  0  0  0  0
    1.4473   -0.9305   -0.5798 N   0  0  0  0  0  0  0  0  0  0  0  0
    0.0546    0.7263    0.1926 N   0  0  0  0  0  0  0  0  0  0  0  0
   -3.7374    7.7450    2.8881 N   0  0  0  0  0  0  0  0  0  0  0  0
   -1.8331    3.6387    1.4226 N   0  0  0  0  0  0  0  0  0  0  0  0
    3.4332    0.3017   -0.6729 O   0  0  0  0  0  0  0  0  0  0  0  0
   -2.1801    1.0054    0.7618 O   0  0  0  0  0  0  0  0  0  0  0  0
   -2.6015   -3.0141   -0.2737 F   0  0  0  0  0  0  0  0  0  0  0  0
   -1.2972   -4.5931   -1.0046 F   0  0  0  0  0  0  0  0  0  0  0  0
   -3.5518    5.6117    1.3582 H   0  0  0  0  0  0  0  0  0  0  0  0
   -0.1788    5.9209    4.8326 H   0  0  0  0  0  0  0  0  0  0  0  0
    0.7143    4.3944    1.0752 H   0  0  0  0  0  0  0  0  0  0  0  0
   -0.5064   -0.3617   -2.2916 H   0  0  0  0  0  0  0  0  0  0  0  0
   -1.8734   -0.5906   -1.2159 H   0  0  0  0  0  0  0  0  0  0  0  0
   -1.3019   -1.3198    1.3791 H   0  0  0  0  0  0  0  0  0  0  0  0
    0.3929   -1.5091    1.7917 H   0  0  0  0  0  0  0  0  0  0  0  0
   -1.6793   -2.5426   -2.6154 H   0  0  0  0  0  0  0  0  0  0  0  0
    0.0201   -2.7582   -2.2315 H   0  0  0  0  0  0  0  0  0  0  0  0
    0.5874   -3.4821    0.3449 H   0  0  0  0  0  0  0  0  0  0  0  0
   -0.7920   -3.6747    1.4133 H   0  0  0  0  0  0  0  0  0  0  0  0
    3.4540    3.1288    1.2071 H   0  0  0  0  0  0  0  0  0  0  0  0
    2.7630    4.2857    0.0478 H   0  0  0  0  0  0  0  0  0  0  0  0
    3.5068    2.7860   -0.5364 H   0  0  0  0  0  0  0  0  0  0  0  0
    1.8061   -1.8211   -0.9098 H   0  0  0  0  0  0  0  0  0  0  0  0
   -4.3908    7.6835    2.1376 H   0  0  0  0  0  0  0  0  0  0  0  0
   -3.6967    8.5406    3.4877 H   0  0  0  0  0  0  0  0  0  0  0  0
   -2.7168    3.3431    1.0489 H   0  0  0  0  0  0  0  0  0  0  0  0
  1  3  2  0  0  0  0
  1  4  1  0  0  0  0
  2 18  2  0  0  0  0
  2 19  1  0  0  0  0
  3 18  1  0  0  0  0
  3 22  1  0  0  0  0
  4 19  2  0  0  0  0
  4 23  1  0  0  0  0
  5  6  1  0  0  0  0
  5  8  2  0  0  0  0
  6  7  2  0  0  0  0
  6 17  1  0  0  0  0
  7  9  1  0  0  0  0
  7 21  1  0  0  0  0
  8 10  1  0  0  0  0
  8 23  1  0  0  0  0
  9 20  1  0  0  0  0
  9 24  2  0  0  0  0
 10 21  1  0  0  0  0
 10 25  2  0  0  0  0
 11 13  1  0  0  0  0
 11 15  1  0  0  0  0
 12 14  1  0  0  0  0
 12 15  1  0  0  0  0
 13 16  1  0  0  0  0
 14 16  1  0  0  0  0
 15 20  1  0  0  0  0
 15 21  1  0  0  0  0
 16 26  1  0  0  0  0
 16 27  1  0  0  0  0
  1 28  1  0  0  0  0
  2 29  1  0  0  0  0
  5 30  1  0  0  0  0
 11 31  1  0  0  0  0
 11 32  1  0  0  0  0
 12 33  1  0  0  0  0
 12 34  1  0  0  0  0
 13 35  1  0  0  0  0
 13 36  1  0  0  0  0
 14 37  1  0  0  0  0
 14 38  1  0  0  0  0
 17 39  1  0  0  0  0
 17 40  1  0  0  0  0
 17 41  1  0  0  0  0
 20 42  1  0  0  0  0
 22 43  1  0  0  0  0
 22 44  1  0  0  0  0
 23 45  1  0  0  0  0
M  END
> <Molecule Name>
cmp_22

> <mmff94s_NoEstat>
89.71

> <IC50_nM>
1.4

$$$$
cmp_23
  -OEChem-07031814273D

 30 32  0     1  0  0  0  0  0999 V2000
    3.2600    0.8050   -0.6131 C   0  0  0  0  0  0  0  0  0  0  0  0
    2.1487    0.0645   -0.2086 C   0  0  0  0  0  0  0  0  0  0  0  0
   -2.4821   -1.0113   -0.0278 C   0  0  0  0  0  0  0  0  0  0  0  0
    0.6413    1.8795   -0.8355 C   0  0  0  0  0  0  0  0  0  0  0  0
   -3.8319   -0.7248   -0.0075 C   0  0  0  0  0  0  0  0  0  0  0  0
   -3.4085    1.4916    0.2674 C   0  0  0  0  0  0  0  0  0  0  0  0
    3.0255    2.0690   -1.1185 C   0  0  0  0  0  0  0  0  0  0  0  0
    1.7447    2.6138   -1.2317 C   0  0  0  0  0  0  0  0  0  0  0  0
    0.8508    0.5963   -0.3192 C   0  0  0  0  0  0  0  0  0  0  0  0
   -1.6396    0.0724    0.1133 C   0  0  0  0  0  0  0  0  0  0  0  0
    3.9901    3.0533   -1.6166 C   0  0  0  0  0  0  0  0  0  0  0  0
    1.8150    3.9909   -1.8172 C   0  0  1  0  0  0  0  0  0  0  0  0
    1.2490    5.0670   -0.9049 C   0  0  0  0  0  0  0  0  0  0  0  0
   -4.3318    0.5198    0.1389 N   0  0  0  0  0  0  0  0  0  0  0  0
   -2.0702    1.3422    0.2633 N   0  0  0  0  0  0  0  0  0  0  0  0
    3.2482    4.1588   -2.0109 N   0  0  0  0  0  0  0  0  0  0  0  0
   -0.2553   -0.1775    0.0980 N   0  0  0  0  0  0  0  0  0  0  0  0
    5.1938    2.8835   -1.6663 O   0  0  0  0  0  0  0  0  0  0  0  0
    4.2606    0.3970   -0.5307 H   0  0  0  0  0  0  0  0  0  0  0  0
    2.2967   -0.9343    0.1958 H   0  0  0  0  0  0  0  0  0  0  0  0
   -2.1221   -2.0254   -0.1479 H   0  0  0  0  0  0  0  0  0  0  0  0
   -0.3596    2.2903   -0.9241 H   0  0  0  0  0  0  0  0  0  0  0  0
   -4.5710   -1.5119   -0.1121 H   0  0  0  0  0  0  0  0  0  0  0  0
   -3.7822    2.5012    0.3864 H   0  0  0  0  0  0  0  0  0  0  0  0
    1.3421    4.0168   -2.8046 H   0  0  0  0  0  0  0  0  0  0  0  0
    1.7326    5.0244    0.0724 H   0  0  0  0  0  0  0  0  0  0  0  0
    0.1758    4.9213   -0.7719 H   0  0  0  0  0  0  0  0  0  0  0  0
    1.4183    6.0544   -1.3375 H   0  0  0  0  0  0  0  0  0  0  0  0
    3.6640    5.0009   -2.3963 H   0  0  0  0  0  0  0  0  0  0  0  0
    0.0028   -1.0909    0.4567 H   0  0  0  0  0  0  0  0  0  0  0  0
  1  2  2  0  0  0  0
  1  7  1  0  0  0  0
  2  9  1  0  0  0  0
  3  5  2  0  0  0  0
  3 10  1  0  0  0  0
  4  8  1  0  0  0  0
  4  9  2  0  0  0  0
  5 14  1  0  0  0  0
  6 14  2  0  0  0  0
  6 15  1  0  0  0  0
  7  8  2  0  0  0  0
  7 11  1  0  0  0  0
  8 12  1  0  0  0  0
  9 17  1  0  0  0  0
 10 15  2  0  0  0  0
 10 17  1  0  0  0  0
 11 16  1  0  0  0  0
 11 18  2  0  0  0  0
 12 13  1  0  0  0  0
 12 16  1  0  0  0  0
  1 19  1  0  0  0  0
  2 20  1  0  0  0  0
  3 21  1  0  0  0  0
  4 22  1  0  0  0  0
  5 23  1  0  0  0  0
  6 24  1  0  0  0  0
 12 25  1  0  0  0  0
 13 26  1  0  0  0  0
 13 27  1  0  0  0  0
 13 28  1  0  0  0  0
 16 29  1  0  0  0  0
 17 30  1  0  0  0  0
M  END
> <Molecule Name>
cmp_23

> <mmff94s_NoEstat>
63.43

> <IC50_nM>
28

$$$$
