Compound_1
  -OEChem-05301814333D

 51 54  0     0  0  0  0  0  0999 V2000
    0.5473   -0.9244    0.1601 C   0  0  0  0  0  0  0  0  0  0  0  0
    1.9382   -0.9338    0.0750 C   0  0  0  0  0  0  0  0  0  0  0  0
    2.5844    0.3172   -0.2378 C   0  0  0  0  0  0  0  0  0  0  0  0
    1.9552   -3.2999    0.5806 C   0  0  0  0  0  0  0  0  0  0  0  0
    0.5545   -3.2977    0.6570 C   0  0  0  0  0  0  0  0  0  0  0  0
   -0.1426   -2.1000    0.4559 C   0  0  0  0  0  0  0  0  0  0  0  0
    2.6452   -2.1173    0.2888 C   0  0  0  0  0  0  0  0  0  0  0  0
    2.9392    0.9057   -1.4639 C   0  0  0  0  0  0  0  0  0  0  0  0
    2.9998    1.2309    0.6943 C   0  0  0  0  0  0  0  0  0  0  0  0
    0.8869   -9.2962    3.6312 C   0  0  0  0  0  0  0  0  0  0  0  0
    2.7173   -4.5526    0.8344 C   0  0  0  0  0  0  0  0  0  0  0  0
    1.4105   -8.8245    2.3582 C   0  0  0  0  0  0  0  0  0  0  0  0
    2.0563   -7.6407    2.2816 C   0  0  0  0  0  0  0  0  0  0  0  0
    1.0360   -8.5749    4.7506 C   0  0  0  0  0  0  0  0  0  0  0  0
    2.2291   -6.8289    3.5439 C   0  0  0  0  0  0  0  0  0  0  0  0
   -0.1814   -4.5565    1.0130 C   0  0  0  0  0  0  0  0  0  0  0  0
    0.5689   -5.7597    0.4668 C   0  0  0  0  0  0  0  0  0  0  0  0
    2.7361    0.3717   -2.8219 C   0  0  0  0  0  0  0  0  0  0  0  0
    2.9588    1.2900    2.1627 C   0  0  0  0  0  0  0  0  0  0  0  0
    1.1604   -9.7669    1.2133 C   0  0  0  0  0  0  0  0  0  0  0  0
    0.5219   -9.0027    6.0877 C   0  0  0  0  0  0  0  0  0  0  0  0
    2.6303   -7.0192    1.0592 C   0  0  0  0  0  0  0  0  0  0  0  0
    3.5296    2.0935   -1.3045 N   0  0  0  0  0  0  0  0  0  0  0  0
    1.6940   -7.3699    4.6977 N   0  0  0  0  0  0  0  0  0  0  0  0
    1.9740   -5.7364    0.8606 N   0  0  0  0  0  0  0  0  0  0  0  0
    3.9312   -4.4847    1.0124 O   0  0  0  0  0  0  0  0  0  0  0  0
    2.8169   -5.7485    3.5276 O   0  0  0  0  0  0  0  0  0  0  0  0
    3.5656    2.2954    0.0700 O   0  0  0  0  0  0  0  0  0  0  0  0
   -1.8651   -1.9881    0.5842 Cl  0  0  0  0  0  0  0  0  0  0  0  0
    4.3795   -2.0369    0.0917 Cl  0  0  0  0  0  0  0  0  0  0  0  0
   -0.0020    0.0025    0.0017 H   0  0  0  0  0  0  0  0  0  0  0  0
    0.3688  -10.2503    3.6531 H   0  0  0  0  0  0  0  0  0  0  0  0
   -0.2586   -4.6184    2.1054 H   0  0  0  0  0  0  0  0  0  0  0  0
   -1.1936   -4.5850    0.5986 H   0  0  0  0  0  0  0  0  0  0  0  0
    0.1043   -6.6797    0.8389 H   0  0  0  0  0  0  0  0  0  0  0  0
    0.5386   -5.7785   -0.6296 H   0  0  0  0  0  0  0  0  0  0  0  0
    1.7632    0.6881   -3.2349 H   0  0  0  0  0  0  0  0  0  0  0  0
    3.5204    0.7076   -3.5233 H   0  0  0  0  0  0  0  0  0  0  0  0
    2.7639   -0.7323   -2.8438 H   0  0  0  0  0  0  0  0  0  0  0  0
    3.8650    0.8440    2.6096 H   0  0  0  0  0  0  0  0  0  0  0  0
    2.8812    2.3267    2.5390 H   0  0  0  0  0  0  0  0  0  0  0  0
    2.0866    0.7538    2.5801 H   0  0  0  0  0  0  0  0  0  0  0  0
    0.2099   -9.5220    0.7477 H   0  0  0  0  0  0  0  0  0  0  0  0
    1.1350  -10.7872    1.5864 H   0  0  0  0  0  0  0  0  0  0  0  0
    1.9621   -9.6696    0.4862 H   0  0  0  0  0  0  0  0  0  0  0  0
    1.2834   -9.5845    6.6055 H   0  0  0  0  0  0  0  0  0  0  0  0
   -0.3729   -9.6112    5.9608 H   0  0  0  0  0  0  0  0  0  0  0  0
    0.2708   -8.1255    6.6832 H   0  0  0  0  0  0  0  0  0  0  0  0
    2.4510   -7.6749    0.2036 H   0  0  0  0  0  0  0  0  0  0  0  0
    3.7054   -6.8796    1.1968 H   0  0  0  0  0  0  0  0  0  0  0  0
    1.7934   -6.8433    5.5611 H   0  0  0  0  0  0  0  0  0  0  0  0
  1  2  1  0  0  0  0
  1  6  2  0  0  0  0
  2  3  1  0  0  0  0
  2  7  2  0  0  0  0
  3  8  1  0  0  0  0
  3  9  2  0  0  0  0
  4  5  2  0  0  0  0
  4  7  1  0  0  0  0
  4 11  1  0  0  0  0
  5  6  1  0  0  0  0
  5 16  1  0  0  0  0
  6 29  1  0  0  0  0
  7 30  1  0  0  0  0
  8 18  1  0  0  0  0
  8 23  2  0  0  0  0
  9 19  1  0  0  0  0
  9 28  1  0  0  0  0
 10 12  1  0  0  0  0
 10 14  2  0  0  0  0
 11 25  1  0  0  0  0
 11 26  2  0  0  0  0
 12 13  2  0  0  0  0
 12 20  1  0  0  0  0
 13 15  1  0  0  0  0
 13 22  1  0  0  0  0
 14 21  1  0  0  0  0
 14 24  1  0  0  0  0
 15 24  1  0  0  0  0
 15 27  2  0  0  0  0
 16 17  1  0  0  0  0
 17 25  1  0  0  0  0
 22 25  1  0  0  0  0
 23 28  1  0  0  0  0
  1 31  1  0  0  0  0
 10 32  1  0  0  0  0
 16 33  1  0  0  0  0
 16 34  1  0  0  0  0
 17 35  1  0  0  0  0
 17 36  1  0  0  0  0
 18 37  1  0  0  0  0
 18 38  1  0  0  0  0
 18 39  1  0  0  0  0
 19 40  1  0  0  0  0
 19 41  1  0  0  0  0
 19 42  1  0  0  0  0
 20 43  1  0  0  0  0
 20 44  1  0  0  0  0
 20 45  1  0  0  0  0
 21 46  1  0  0  0  0
 21 47  1  0  0  0  0
 21 48  1  0  0  0  0
 22 49  1  0  0  0  0
 22 50  1  0  0  0  0
 24 51  1  0  0  0  0
M  END
> <Molecule Name>
cmp1

> <mmff94s_NoEstat>
79.34

> <Ki_nM>
1.15

$$$$
Compound_2
  -OEChem-05301814333D

 49 51  0     1  0  0  0  0  0999 V2000
    0.5473   -0.9244    0.1601 C   0  0  0  0  0  0  0  0  0  0  0  0
    1.9552   -3.2999    0.5806 C   0  0  0  0  0  0  0  0  0  0  0  0
    0.5545   -3.2977    0.6570 C   0  0  0  0  0  0  0  0  0  0  0  0
    1.9382   -0.9338    0.0750 C   0  0  0  0  0  0  0  0  0  0  0  0
   -0.1426   -2.1000    0.4559 C   0  0  0  0  0  0  0  0  0  0  0  0
    2.6452   -2.1173    0.2888 C   0  0  0  0  0  0  0  0  0  0  0  0
    0.8869   -9.2962    3.6312 C   0  0  0  0  0  0  0  0  0  0  0  0
    2.7173   -4.5526    0.8344 C   0  0  0  0  0  0  0  0  0  0  0  0
    1.4105   -8.8245    2.3582 C   0  0  0  0  0  0  0  0  0  0  0  0
    2.0563   -7.6407    2.2816 C   0  0  0  0  0  0  0  0  0  0  0  0
    1.0360   -8.5749    4.7506 C   0  0  0  0  0  0  0  0  0  0  0  0
    2.2291   -6.8289    3.5439 C   0  0  0  0  0  0  0  0  0  0  0  0
   -0.1814   -4.5565    1.0130 C   0  0  0  0  0  0  0  0  0  0  0  0
    0.5689   -5.7597    0.4668 C   0  0  0  0  0  0  0  0  0  0  0  0
    1.1604   -9.7669    1.2133 C   0  0  0  0  0  0  0  0  0  0  0  0
    0.5219   -9.0027    6.0877 C   0  0  0  0  0  0  0  0  0  0  0  0
    2.3649    1.4277    0.8314 C   0  0  0  0  0  0  0  0  0  0  0  0
    2.6303   -7.0192    1.0592 C   0  0  0  0  0  0  0  0  0  0  0  0
    2.2110    0.9163   -1.6334 C   0  0  0  0  0  0  0  0  0  0  0  0
    2.6150    0.3612   -0.2508 C   0  0  2  0  0  0  0  0  0  0  0  0
    1.6939   -7.3699    4.6977 N   0  0  0  0  0  0  0  0  0  0  0  0
    1.9740   -5.7364    0.8606 N   0  0  0  0  0  0  0  0  0  0  0  0
    3.9312   -4.4847    1.0124 O   0  0  0  0  0  0  0  0  0  0  0  0
    2.8169   -5.7485    3.5276 O   0  0  0  0  0  0  0  0  0  0  0  0
    2.5938   -0.0123   -2.6418 O   0  0  0  0  0  0  0  0  0  0  0  0
   -1.8649   -1.9876    0.5845 Cl  0  0  0  0  0  0  0  0  0  0  0  0
    4.3731   -2.0169    0.0938 Cl  0  0  0  0  0  0  0  0  0  0  0  0
    0.0057    0.0058    0.0002 H   0  0  0  0  0  0  0  0  0  0  0  0
    0.3688  -10.2503    3.6531 H   0  0  0  0  0  0  0  0  0  0  0  0
   -0.2590   -4.6183    2.1054 H   0  0  0  0  0  0  0  0  0  0  0  0
   -1.1931   -4.5848    0.5974 H   0  0  0  0  0  0  0  0  0  0  0  0
    0.1046   -6.6795    0.8395 H   0  0  0  0  0  0  0  0  0  0  0  0
    0.5384   -5.7787   -0.6296 H   0  0  0  0  0  0  0  0  0  0  0  0
    0.2099   -9.5220    0.7477 H   0  0  0  0  0  0  0  0  0  0  0  0
    1.1350  -10.7872    1.5864 H   0  0  0  0  0  0  0  0  0  0  0  0
    1.9621   -9.6696    0.4862 H   0  0  0  0  0  0  0  0  0  0  0  0
    1.2834   -9.5845    6.6055 H   0  0  0  0  0  0  0  0  0  0  0  0
   -0.3729   -9.6112    5.9608 H   0  0  0  0  0  0  0  0  0  0  0  0
    0.2708   -8.1255    6.6832 H   0  0  0  0  0  0  0  0  0  0  0  0
    1.2971    1.6506    0.9328 H   0  0  0  0  0  0  0  0  0  0  0  0
    2.7301    1.1022    1.8115 H   0  0  0  0  0  0  0  0  0  0  0  0
    2.8783    2.3615    0.5762 H   0  0  0  0  0  0  0  0  0  0  0  0
    2.4510   -7.6749    0.2036 H   0  0  0  0  0  0  0  0  0  0  0  0
    3.7054   -6.8796    1.1968 H   0  0  0  0  0  0  0  0  0  0  0  0
    2.7213    1.8626   -1.8431 H   0  0  0  0  0  0  0  0  0  0  0  0
    1.1315    1.0848   -1.7055 H   0  0  0  0  0  0  0  0  0  0  0  0
    3.7089    0.2004   -0.2841 H   0  0  0  0  0  0  0  0  0  0  0  0
    1.7934   -6.8433    5.5610 H   0  0  0  0  0  0  0  0  0  0  0  0
    2.3237    0.3721   -3.4908 H   0  0  0  0  0  0  0  0  0  0  0  0
  1  4  1  0  0  0  0
  1  5  2  0  0  0  0
  2  3  2  0  0  0  0
  2  6  1  0  0  0  0
  2  8  1  0  0  0  0
  3  5  1  0  0  0  0
  3 13  1  0  0  0  0
  4  6  2  0  0  0  0
  4 20  1  0  0  0  0
  5 26  1  0  0  0  0
  6 27  1  0  0  0  0
  7  9  1  0  0  0  0
  7 11  2  0  0  0  0
  8 22  1  0  0  0  0
  8 23  2  0  0  0  0
  9 10  2  0  0  0  0
  9 15  1  0  0  0  0
 10 12  1  0  0  0  0
 10 18  1  0  0  0  0
 11 16  1  0  0  0  0
 11 21  1  0  0  0  0
 12 21  1  0  0  0  0
 12 24  2  0  0  0  0
 13 14  1  0  0  0  0
 14 22  1  0  0  0  0
 17 20  1  0  0  0  0
 18 22  1  0  0  0  0
 19 20  1  0  0  0  0
 19 25  1  0  0  0  0
  1 28  1  0  0  0  0
  7 29  1  0  0  0  0
 13 30  1  0  0  0  0
 13 31  1  0  0  0  0
 14 32  1  0  0  0  0
 14 33  1  0  0  0  0
 15 34  1  0  0  0  0
 15 35  1  0  0  0  0
 15 36  1  0  0  0  0
 16 37  1  0  0  0  0
 16 38  1  0  0  0  0
 16 39  1  0  0  0  0
 17 40  1  0  0  0  0
 17 41  1  0  0  0  0
 17 42  1  0  0  0  0
 18 43  1  0  0  0  0
 18 44  1  0  0  0  0
 19 45  1  0  0  0  0
 19 46  1  0  0  0  0
 20 47  1  0  0  0  0
 21 48  1  0  0  0  0
 25 49  1  0  0  0  0
M  END
> <Molecule Name>
cmp_4a

> <mmff94s_NoEstat>
80.75

> <Ki_nM>
17

$$$$
Compound_3
  -OEChem-05301814333D

 49 51  0     1  0  0  0  0  0999 V2000
    0.5473   -0.9244    0.1601 C   0  0  0  0  0  0  0  0  0  0  0  0
    1.9552   -3.2999    0.5806 C   0  0  0  0  0  0  0  0  0  0  0  0
    0.5545   -3.2977    0.6570 C   0  0  0  0  0  0  0  0  0  0  0  0
    1.9382   -0.9338    0.0750 C   0  0  0  0  0  0  0  0  0  0  0  0
   -0.1426   -2.1000    0.4559 C   0  0  0  0  0  0  0  0  0  0  0  0
    2.6452   -2.1173    0.2888 C   0  0  0  0  0  0  0  0  0  0  0  0
    0.8869   -9.2962    3.6312 C   0  0  0  0  0  0  0  0  0  0  0  0
    2.7173   -4.5526    0.8344 C   0  0  0  0  0  0  0  0  0  0  0  0
    1.4105   -8.8245    2.3582 C   0  0  0  0  0  0  0  0  0  0  0  0
    2.0563   -7.6407    2.2816 C   0  0  0  0  0  0  0  0  0  0  0  0
    1.0360   -8.5749    4.7506 C   0  0  0  0  0  0  0  0  0  0  0  0
    2.2291   -6.8289    3.5439 C   0  0  0  0  0  0  0  0  0  0  0  0
   -0.1814   -4.5565    1.0130 C   0  0  0  0  0  0  0  0  0  0  0  0
    0.5689   -5.7597    0.4668 C   0  0  0  0  0  0  0  0  0  0  0  0
    1.1604   -9.7669    1.2133 C   0  0  0  0  0  0  0  0  0  0  0  0
    0.5219   -9.0027    6.0877 C   0  0  0  0  0  0  0  0  0  0  0  0
    2.2076    0.8927   -1.6374 C   0  0  0  0  0  0  0  0  0  0  0  0
    2.6303   -7.0192    1.0592 C   0  0  0  0  0  0  0  0  0  0  0  0
    2.3607    1.4566    0.8068 C   0  0  0  0  0  0  0  0  0  0  0  0
    2.6150    0.3612   -0.2508 C   0  0  1  0  0  0  0  0  0  0  0  0
    1.6939   -7.3699    4.6977 N   0  0  0  0  0  0  0  0  0  0  0  0
    1.9740   -5.7364    0.8606 N   0  0  0  0  0  0  0  0  0  0  0  0
    3.9312   -4.4847    1.0124 O   0  0  0  0  0  0  0  0  0  0  0  0
    2.8169   -5.7485    3.5276 O   0  0  0  0  0  0  0  0  0  0  0  0
    2.8210    1.0009    2.0742 O   0  0  0  0  0  0  0  0  0  0  0  0
   -1.8649   -1.9876    0.5845 Cl  0  0  0  0  0  0  0  0  0  0  0  0
    4.3731   -2.0169    0.0938 Cl  0  0  0  0  0  0  0  0  0  0  0  0
    0.0057    0.0058    0.0002 H   0  0  0  0  0  0  0  0  0  0  0  0
    0.3688  -10.2503    3.6531 H   0  0  0  0  0  0  0  0  0  0  0  0
   -0.2590   -4.6183    2.1054 H   0  0  0  0  0  0  0  0  0  0  0  0
   -1.1931   -4.5848    0.5974 H   0  0  0  0  0  0  0  0  0  0  0  0
    0.1046   -6.6795    0.8395 H   0  0  0  0  0  0  0  0  0  0  0  0
    0.5384   -5.7787   -0.6296 H   0  0  0  0  0  0  0  0  0  0  0  0
    0.2099   -9.5220    0.7477 H   0  0  0  0  0  0  0  0  0  0  0  0
    1.1350  -10.7872    1.5864 H   0  0  0  0  0  0  0  0  0  0  0  0
    1.9621   -9.6696    0.4862 H   0  0  0  0  0  0  0  0  0  0  0  0
    1.2834   -9.5845    6.6055 H   0  0  0  0  0  0  0  0  0  0  0  0
   -0.3729   -9.6112    5.9608 H   0  0  0  0  0  0  0  0  0  0  0  0
    0.2708   -8.1255    6.6832 H   0  0  0  0  0  0  0  0  0  0  0  0
    1.1297    1.0806   -1.6918 H   0  0  0  0  0  0  0  0  0  0  0  0
    2.7201    1.8306   -1.8771 H   0  0  0  0  0  0  0  0  0  0  0  0
    2.4596    0.1650   -2.4168 H   0  0  0  0  0  0  0  0  0  0  0  0
    2.4510   -7.6749    0.2036 H   0  0  0  0  0  0  0  0  0  0  0  0
    3.7054   -6.8796    1.1968 H   0  0  0  0  0  0  0  0  0  0  0  0
    1.2911    1.6735    0.9010 H   0  0  0  0  0  0  0  0  0  0  0  0
    2.8800    2.3888    0.5612 H   0  0  0  0  0  0  0  0  0  0  0  0
    3.7089    0.2004   -0.2841 H   0  0  0  0  0  0  0  0  0  0  0  0
    1.7934   -6.8433    5.5610 H   0  0  0  0  0  0  0  0  0  0  0  0
    2.6438    1.7144    2.7075 H   0  0  0  0  0  0  0  0  0  0  0  0
  1  4  1  0  0  0  0
  1  5  2  0  0  0  0
  2  3  2  0  0  0  0
  2  6  1  0  0  0  0
  2  8  1  0  0  0  0
  3  5  1  0  0  0  0
  3 13  1  0  0  0  0
  4  6  2  0  0  0  0
  4 20  1  0  0  0  0
  5 26  1  0  0  0  0
  6 27  1  0  0  0  0
  7  9  1  0  0  0  0
  7 11  2  0  0  0  0
  8 22  1  0  0  0  0
  8 23  2  0  0  0  0
  9 10  2  0  0  0  0
  9 15  1  0  0  0  0
 10 12  1  0  0  0  0
 10 18  1  0  0  0  0
 11 16  1  0  0  0  0
 11 21  1  0  0  0  0
 12 21  1  0  0  0  0
 12 24  2  0  0  0  0
 13 14  1  0  0  0  0
 14 22  1  0  0  0  0
 17 20  1  0  0  0  0
 18 22  1  0  0  0  0
 19 20  1  0  0  0  0
 19 25  1  0  0  0  0
  1 28  1  0  0  0  0
  7 29  1  0  0  0  0
 13 30  1  0  0  0  0
 13 31  1  0  0  0  0
 14 32  1  0  0  0  0
 14 33  1  0  0  0  0
 15 34  1  0  0  0  0
 15 35  1  0  0  0  0
 15 36  1  0  0  0  0
 16 37  1  0  0  0  0
 16 38  1  0  0  0  0
 16 39  1  0  0  0  0
 17 40  1  0  0  0  0
 17 41  1  0  0  0  0
 17 42  1  0  0  0  0
 18 43  1  0  0  0  0
 18 44  1  0  0  0  0
 19 45  1  0  0  0  0
 19 46  1  0  0  0  0
 20 47  1  0  0  0  0
 21 48  1  0  0  0  0
 25 49  1  0  0  0  0
M  END
> <Molecule Name>
cmp_4b

> <mmff94s_NoEstat>
80.93

> <Ki_nM>
260

$$$$
Compound_4
  -OEChem-05301814333D

 57 60  0     1  0  0  0  0  0999 V2000
    1.7842    2.0251    2.8270 C   0  0  0  0  0  0  0  0  0  0  0  0
    2.9121    4.4889    2.1493 C   0  0  0  0  0  0  0  0  0  0  0  0
    3.6429    3.5790    2.9277 C   0  0  0  0  0  0  0  0  0  0  0  0
    1.0663    2.9281    2.0453 C   0  0  0  0  0  0  0  0  0  0  0  0
    3.0654    2.3508    3.2721 C   0  0  0  0  0  0  0  0  0  0  0  0
    1.6244    4.1614    1.7086 C   0  0  0  0  0  0  0  0  0  0  0  0
    7.8476    8.5630    4.4831 C   0  0  0  0  0  0  0  0  0  0  0  0
    3.4903    5.8173    1.8093 C   0  0  0  0  0  0  0  0  0  0  0  0
    7.4206    8.0320    3.1974 C   0  0  0  0  0  0  0  0  0  0  0  0
    6.1146    7.7797    2.9622 C   0  0  0  0  0  0  0  0  0  0  0  0
    6.9614    8.8169    5.4556 C   0  0  0  0  0  0  0  0  0  0  0  0
    5.1142    8.0701    4.0563 C   0  0  0  0  0  0  0  0  0  0  0  0
    5.0057    3.9490    3.4363 C   0  0  0  0  0  0  0  0  0  0  0  0
   -1.6120    0.8497    0.1885 C   0  0  0  0  0  0  0  0  0  0  0  0
    5.7010    4.8492    2.4286 C   0  0  0  0  0  0  0  0  0  0  0  0
   -1.2217   -0.0186   -0.9894 C   0  0  0  0  0  0  0  0  0  0  0  0
    0.5096    1.4865   -0.5831 C   0  0  0  0  0  0  0  0  0  0  0  0
   -0.2595    1.2835    0.7107 C   0  0  1  0  0  0  0  0  0  0  0  0
    8.5477    7.8190    2.2251 C   0  0  0  0  0  0  0  0  0  0  0  0
    7.3351    9.3617    6.7968 C   0  0  0  0  0  0  0  0  0  0  0  0
    5.5276    7.2253    1.7140 C   0  0  0  0  0  0  0  0  0  0  0  0
   -1.2684    2.2585    2.7729 C   0  0  0  0  0  0  0  0  0  0  0  0
   -0.3006    2.5132    1.5974 C   0  0  1  0  0  0  0  0  0  0  0  0
    5.6271    8.5728    5.2372 N   0  0  0  0  0  0  0  0  0  0  0  0
    4.8578    5.9790    2.0513 N   0  0  0  0  0  0  0  0  0  0  0  0
    2.7531    6.6875    1.3517 O   0  0  0  0  0  0  0  0  0  0  0  0
    3.9130    7.8651    3.8880 O   0  0  0  0  0  0  0  0  0  0  0  0
    0.0015    0.5184   -1.5141 O   0  0  0  0  0  0  0  0  0  0  0  0
   -1.3782    3.4426    3.5550 O   0  0  0  0  0  0  0  0  0  0  0  0
    3.8670    1.1887    4.2733 Cl  0  0  0  0  0  0  0  0  0  0  0  0
    0.6570    5.1778    0.6765 Cl  0  0  0  0  0  0  0  0  0  0  0  0
    1.3365    1.0692    3.0915 H   0  0  0  0  0  0  0  0  0  0  0  0
    8.9063    8.7485    4.6376 H   0  0  0  0  0  0  0  0  0  0  0  0
    4.8912    4.4671    4.3963 H   0  0  0  0  0  0  0  0  0  0  0  0
    5.6474    3.0770    3.5942 H   0  0  0  0  0  0  0  0  0  0  0  0
   -2.1873    1.7156   -0.1613 H   0  0  0  0  0  0  0  0  0  0  0  0
   -2.2166    0.3138    0.9254 H   0  0  0  0  0  0  0  0  0  0  0  0
    6.6364    5.2244    2.8586 H   0  0  0  0  0  0  0  0  0  0  0  0
    5.9405    4.3005    1.5095 H   0  0  0  0  0  0  0  0  0  0  0  0
   -1.0256   -1.0492   -0.6750 H   0  0  0  0  0  0  0  0  0  0  0  0
   -1.9848   -0.0316   -1.7727 H   0  0  0  0  0  0  0  0  0  0  0  0
    0.3417    2.4803   -1.0129 H   0  0  0  0  0  0  0  0  0  0  0  0
    1.5863    1.3396   -0.4572 H   0  0  0  0  0  0  0  0  0  0  0  0
    0.1880    0.4424    1.2606 H   0  0  0  0  0  0  0  0  0  0  0  0
    8.9409    6.8135    2.3459 H   0  0  0  0  0  0  0  0  0  0  0  0
    9.3318    8.5461    2.4184 H   0  0  0  0  0  0  0  0  0  0  0  0
    8.1776    7.9499    1.2118 H   0  0  0  0  0  0  0  0  0  0  0  0
    7.3105   10.4504    6.7714 H   0  0  0  0  0  0  0  0  0  0  0  0
    8.3381    9.0294    7.0629 H   0  0  0  0  0  0  0  0  0  0  0  0
    6.6331    9.0022    7.5485 H   0  0  0  0  0  0  0  0  0  0  0  0
    6.3259    7.0445    0.9900 H   0  0  0  0  0  0  0  0  0  0  0  0
    4.8131    7.9424    1.3024 H   0  0  0  0  0  0  0  0  0  0  0  0
   -0.8945    1.4630    3.4265 H   0  0  0  0  0  0  0  0  0  0  0  0
   -2.2673    1.9761    2.4246 H   0  0  0  0  0  0  0  0  0  0  0  0
   -0.7451    3.3241    0.9906 H   0  0  0  0  0  0  0  0  0  0  0  0
    4.9765    8.7745    5.9912 H   0  0  0  0  0  0  0  0  0  0  0  0
   -1.9918    3.2416    4.2792 H   0  0  0  0  0  0  0  0  0  0  0  0
  1  4  1  0  0  0  0
  1  5  2  0  0  0  0
  2  3  2  0  0  0  0
  2  6  1  0  0  0  0
  2  8  1  0  0  0  0
  3  5  1  0  0  0  0
  3 13  1  0  0  0  0
  4  6  2  0  0  0  0
  4 23  1  0  0  0  0
  5 30  1  0  0  0  0
  6 31  1  0  0  0  0
  7  9  1  0  0  0  0
  7 11  2  0  0  0  0
  8 25  1  0  0  0  0
  8 26  2  0  0  0  0
  9 10  2  0  0  0  0
  9 19  1  0  0  0  0
 10 12  1  0  0  0  0
 10 21  1  0  0  0  0
 11 20  1  0  0  0  0
 11 24  1  0  0  0  0
 12 24  1  0  0  0  0
 12 27  2  0  0  0  0
 13 15  1  0  0  0  0
 14 16  1  0  0  0  0
 14 18  1  0  0  0  0
 15 25  1  0  0  0  0
 16 28  1  0  0  0  0
 17 18  1  0  0  0  0
 17 28  1  0  0  0  0
 18 23  1  0  0  0  0
 21 25  1  0  0  0  0
 22 23  1  0  0  0  0
 22 29  1  0  0  0  0
  1 32  1  0  0  0  0
  7 33  1  0  0  0  0
 13 34  1  0  0  0  0
 13 35  1  0  0  0  0
 14 36  1  0  0  0  0
 14 37  1  0  0  0  0
 15 38  1  0  0  0  0
 15 39  1  0  0  0  0
 16 40  1  0  0  0  0
 16 41  1  0  0  0  0
 17 42  1  0  0  0  0
 17 43  1  0  0  0  0
 18 44  1  0  0  0  0
 19 45  1  0  0  0  0
 19 46  1  0  0  0  0
 19 47  1  0  0  0  0
 20 48  1  0  0  0  0
 20 49  1  0  0  0  0
 20 50  1  0  0  0  0
 21 51  1  0  0  0  0
 21 52  1  0  0  0  0
 22 53  1  0  0  0  0
 22 54  1  0  0  0  0
 23 55  1  0  0  0  0
 24 56  1  0  0  0  0
 29 57  1  0  0  0  0
M  END
> <Molecule Name>
6a

> <mmff94s_NoEstat>
94.99

> <Ki_nM>
0.24

$$$$
Compound_5
  -OEChem-05301814333D

 57 60  0     1  0  0  0  0  0999 V2000
    0.6766    3.1275    0.0424 C   0  0  0  0  0  0  0  0  0  0  0  0
    0.4038    4.1868   -2.5278 C   0  0  0  0  0  0  0  0  0  0  0  0
   -0.2730    4.7831   -1.4533 C   0  0  0  0  0  0  0  0  0  0  0  0
    1.3550    2.5450   -1.0264 C   0  0  0  0  0  0  0  0  0  0  0  0
   -0.1393    4.2387   -0.1702 C   0  0  0  0  0  0  0  0  0  0  0  0
    1.2177    3.0684   -2.3122 C   0  0  0  0  0  0  0  0  0  0  0  0
   -4.0361    8.1014   -5.8993 C   0  0  0  0  0  0  0  0  0  0  0  0
    0.2404    4.7230   -3.9063 C   0  0  0  0  0  0  0  0  0  0  0  0
   -2.5933    8.0313   -5.7239 C   0  0  0  0  0  0  0  0  0  0  0  0
   -1.9862    6.8411   -5.5259 C   0  0  0  0  0  0  0  0  0  0  0  0
   -4.7907    6.9944   -5.8735 C   0  0  0  0  0  0  0  0  0  0  0  0
   -2.8355    5.5920   -5.5014 C   0  0  0  0  0  0  0  0  0  0  0  0
   -1.1797    5.9550   -1.6927 C   0  0  0  0  0  0  0  0  0  0  0  0
    2.2233   -1.0529    0.0832 C   0  0  0  0  0  0  0  0  0  0  0  0
   -0.6388    6.7949   -2.8378 C   0  0  0  0  0  0  0  0  0  0  0  0
    1.1495   -2.1203    0.1127 C   0  0  0  0  0  0  0  0  0  0  0  0
    0.3727   -0.3353   -1.1672 C   0  0  0  0  0  0  0  0  0  0  0  0
    1.4091    0.1929   -0.1907 C   0  0  2  0  0  0  0  0  0  0  0  0
   -1.9088    9.3685   -5.7922 C   0  0  0  0  0  0  0  0  0  0  0  0
   -6.2757    6.9986   -6.0468 C   0  0  0  0  0  0  0  0  0  0  0  0
   -0.5329    6.6091   -5.3158 C   0  0  0  0  0  0  0  0  0  0  0  0
    3.3699    1.6863    0.2459 C   0  0  0  0  0  0  0  0  0  0  0  0
    2.2175    1.3584   -0.7275 C   0  0  2  0  0  0  0  0  0  0  0  0
   -4.1944    5.7721   -5.6786 N   0  0  0  0  0  0  0  0  0  0  0  0
   -0.3652    5.9783   -4.0159 N   0  0  0  0  0  0  0  0  0  0  0  0
    0.6289    4.0482   -4.8570 O   0  0  0  0  0  0  0  0  0  0  0  0
   -2.3289    4.4838   -5.3327 O   0  0  0  0  0  0  0  0  0  0  0  0
    0.1201   -1.6987   -0.7941 O   0  0  0  0  0  0  0  0  0  0  0  0
    4.2142    2.6703   -0.3412 O   0  0  0  0  0  0  0  0  0  0  0  0
   -0.9777    4.8710    1.2057 Cl  0  0  0  0  0  0  0  0  0  0  0  0
    2.1630    2.2942   -3.5536 Cl  0  0  0  0  0  0  0  0  0  0  0  0
    0.7835    2.7064    1.0400 H   0  0  0  0  0  0  0  0  0  0  0  0
   -4.4896    9.0763   -6.0510 H   0  0  0  0  0  0  0  0  0  0  0  0
   -2.1807    5.5779   -1.9352 H   0  0  0  0  0  0  0  0  0  0  0  0
   -1.2639    6.6078   -0.8188 H   0  0  0  0  0  0  0  0  0  0  0  0
    2.7981   -1.0071    1.0124 H   0  0  0  0  0  0  0  0  0  0  0  0
    2.9204   -1.2479   -0.7409 H   0  0  0  0  0  0  0  0  0  0  0  0
   -1.3676    7.5708   -3.0974 H   0  0  0  0  0  0  0  0  0  0  0  0
    0.3010    7.2859   -2.5566 H   0  0  0  0  0  0  0  0  0  0  0  0
    1.5254   -3.1025   -0.1868 H   0  0  0  0  0  0  0  0  0  0  0  0
    0.7020   -2.2057    1.1088 H   0  0  0  0  0  0  0  0  0  0  0  0
   -0.5628    0.2308   -1.1313 H   0  0  0  0  0  0  0  0  0  0  0  0
    0.7395   -0.3363   -2.1996 H   0  0  0  0  0  0  0  0  0  0  0  0
    0.9012    0.4886    0.7393 H   0  0  0  0  0  0  0  0  0  0  0  0
   -1.8629    9.7997   -4.7962 H   0  0  0  0  0  0  0  0  0  0  0  0
   -2.4686   10.0258   -6.4521 H   0  0  0  0  0  0  0  0  0  0  0  0
   -0.9033    9.2378   -6.1830 H   0  0  0  0  0  0  0  0  0  0  0  0
   -6.5231    6.8957   -7.1025 H   0  0  0  0  0  0  0  0  0  0  0  0
   -6.6879    7.9338   -5.6690 H   0  0  0  0  0  0  0  0  0  0  0  0
   -6.7133    6.1700   -5.4909 H   0  0  0  0  0  0  0  0  0  0  0  0
   -0.0074    7.5668   -5.3448 H   0  0  0  0  0  0  0  0  0  0  0  0
   -0.1540    5.9574   -6.1070 H   0  0  0  0  0  0  0  0  0  0  0  0
    3.9823    0.8001    0.4451 H   0  0  0  0  0  0  0  0  0  0  0  0
    2.9992    2.0698    1.2021 H   0  0  0  0  0  0  0  0  0  0  0  0
    2.6882    1.0069   -1.6647 H   0  0  0  0  0  0  0  0  0  0  0  0
   -4.7897    4.9487   -5.6638 H   0  0  0  0  0  0  0  0  0  0  0  0
    4.9217    2.8473    0.2987 H   0  0  0  0  0  0  0  0  0  0  0  0
  1  4  1  0  0  0  0
  1  5  2  0  0  0  0
  2  3  2  0  0  0  0
  2  6  1  0  0  0  0
  2  8  1  0  0  0  0
  3  5  1  0  0  0  0
  3 13  1  0  0  0  0
  4  6  2  0  0  0  0
  4 23  1  0  0  0  0
  5 30  1  0  0  0  0
  6 31  1  0  0  0  0
  7  9  1  0  0  0  0
  7 11  2  0  0  0  0
  8 25  1  0  0  0  0
  8 26  2  0  0  0  0
  9 10  2  0  0  0  0
  9 19  1  0  0  0  0
 10 12  1  0  0  0  0
 10 21  1  0  0  0  0
 11 20  1  0  0  0  0
 11 24  1  0  0  0  0
 12 24  1  0  0  0  0
 12 27  2  0  0  0  0
 13 15  1  0  0  0  0
 14 16  1  0  0  0  0
 14 18  1  0  0  0  0
 15 25  1  0  0  0  0
 16 28  1  0  0  0  0
 17 18  1  0  0  0  0
 17 28  1  0  0  0  0
 18 23  1  0  0  0  0
 21 25  1  0  0  0  0
 22 23  1  0  0  0  0
 22 29  1  0  0  0  0
  1 32  1  0  0  0  0
  7 33  1  0  0  0  0
 13 34  1  0  0  0  0
 13 35  1  0  0  0  0
 14 36  1  0  0  0  0
 14 37  1  0  0  0  0
 15 38  1  0  0  0  0
 15 39  1  0  0  0  0
 16 40  1  0  0  0  0
 16 41  1  0  0  0  0
 17 42  1  0  0  0  0
 17 43  1  0  0  0  0
 18 44  1  0  0  0  0
 19 45  1  0  0  0  0
 19 46  1  0  0  0  0
 19 47  1  0  0  0  0
 20 48  1  0  0  0  0
 20 49  1  0  0  0  0
 20 50  1  0  0  0  0
 21 51  1  0  0  0  0
 21 52  1  0  0  0  0
 22 53  1  0  0  0  0
 22 54  1  0  0  0  0
 23 55  1  0  0  0  0
 24 56  1  0  0  0  0
 29 57  1  0  0  0  0
M  END
> <Molecule Name>
cmp_6c

> <mmff94s_NoEstat>
94.76

> <Ki_nM>
1260

$$$$
Compound_6
  -OEChem-05301814333D

 57 60  0     1  0  0  0  0  0999 V2000
    3.3180   -2.5822    0.0075 C   0  0  0  0  0  0  0  0  0  0  0  0
    5.6994   -3.8371   -0.7382 C   0  0  0  0  0  0  0  0  0  0  0  0
    4.6476   -4.5986   -0.2073 C   0  0  0  0  0  0  0  0  0  0  0  0
    4.3618   -1.8317   -0.5300 C   0  0  0  0  0  0  0  0  0  0  0  0
    3.4615   -3.9596    0.1743 C   0  0  0  0  0  0  0  0  0  0  0  0
    5.5544   -2.4541   -0.8994 C   0  0  0  0  0  0  0  0  0  0  0  0
    8.9849   -9.6295    0.6966 C   0  0  0  0  0  0  0  0  0  0  0  0
    6.9841   -4.4903   -1.1089 C   0  0  0  0  0  0  0  0  0  0  0  0
    8.6253   -8.8727   -0.4931 C   0  0  0  0  0  0  0  0  0  0  0  0
    8.5375   -7.5257   -0.4453 C   0  0  0  0  0  0  0  0  0  0  0  0
    9.2401   -9.0122    1.8582 C   0  0  0  0  0  0  0  0  0  0  0  0
    8.8297   -6.8286    0.8627 C   0  0  0  0  0  0  0  0  0  0  0  0
    4.8202   -6.0742    0.0059 C   0  0  0  0  0  0  0  0  0  0  0  0
    2.3869    0.4275   -3.8504 C   0  0  0  0  0  0  0  0  0  0  0  0
    3.2635   -0.5146   -3.0640 C   0  0  0  0  0  0  0  0  0  0  0  0
    5.7311   -6.6434   -1.0691 C   0  0  0  0  0  0  0  0  0  0  0  0
    2.5480    1.7211   -3.0803 C   0  0  0  0  0  0  0  0  0  0  0  0
    3.0011   -0.0546   -1.6403 C   0  0  1  0  0  0  0  0  0  0  0  0
    8.3847   -9.7284   -1.7060 C   0  0  0  0  0  0  0  0  0  0  0  0
    9.6138   -9.7310    3.1149 C   0  0  0  0  0  0  0  0  0  0  0  0
    8.1684   -6.6191   -1.5642 C   0  0  0  0  0  0  0  0  0  0  0  0
    3.8811    0.3567    0.6567 C   0  0  0  0  0  0  0  0  0  0  0  0
    4.1395   -0.3595   -0.6862 C   0  0  1  0  0  0  0  0  0  0  0  0
    9.1618   -7.6424    1.9293 N   0  0  0  0  0  0  0  0  0  0  0  0
    6.9750   -5.8869   -1.1701 N   0  0  0  0  0  0  0  0  0  0  0  0
    7.9672   -3.7867   -1.3292 O   0  0  0  0  0  0  0  0  0  0  0  0
    8.7713   -5.6033    0.9552 O   0  0  0  0  0  0  0  0  0  0  0  0
    2.7903    1.3658   -1.7108 O   0  0  0  0  0  0  0  0  0  0  0  0
    4.9917    0.1465    1.5217 O   0  0  0  0  0  0  0  0  0  0  0  0
    2.1316   -4.8060    0.8888 Cl  0  0  0  0  0  0  0  0  0  0  0  0
    6.7606   -1.4223   -1.6165 Cl  0  0  0  0  0  0  0  0  0  0  0  0
    2.3950   -2.0859    0.3006 H   0  0  0  0  0  0  0  0  0  0  0  0
    9.0406  -10.7113    0.6213 H   0  0  0  0  0  0  0  0  0  0  0  0
    5.2555   -6.2348    0.9997 H   0  0  0  0  0  0  0  0  0  0  0  0
    3.8735   -6.6205   -0.0438 H   0  0  0  0  0  0  0  0  0  0  0  0
    2.6702    0.5186   -4.9022 H   0  0  0  0  0  0  0  0  0  0  0  0
    1.3442    0.0916   -3.8041 H   0  0  0  0  0  0  0  0  0  0  0  0
    3.0199   -1.5688   -3.2220 H   0  0  0  0  0  0  0  0  0  0  0  0
    4.3130   -0.3583   -3.3417 H   0  0  0  0  0  0  0  0  0  0  0  0
    5.9620   -7.6888   -0.8360 H   0  0  0  0  0  0  0  0  0  0  0  0
    5.2483   -6.6089   -2.0535 H   0  0  0  0  0  0  0  0  0  0  0  0
    3.4154    2.2878   -3.4352 H   0  0  0  0  0  0  0  0  0  0  0  0
    1.6633    2.3608   -3.1444 H   0  0  0  0  0  0  0  0  0  0  0  0
    2.0669   -0.4981   -1.2691 H   0  0  0  0  0  0  0  0  0  0  0  0
    7.3360  -10.0094   -1.7449 H   0  0  0  0  0  0  0  0  0  0  0  0
    9.0024  -10.6204   -1.6451 H   0  0  0  0  0  0  0  0  0  0  0  0
    8.6487   -9.1682   -2.5990 H   0  0  0  0  0  0  0  0  0  0  0  0
   10.6964   -9.8380    3.1692 H   0  0  0  0  0  0  0  0  0  0  0  0
    9.1526  -10.7181    3.1256 H   0  0  0  0  0  0  0  0  0  0  0  0
    9.2628   -9.1678    3.9790 H   0  0  0  0  0  0  0  0  0  0  0  0
    7.9717   -7.2138   -2.4596 H   0  0  0  0  0  0  0  0  0  0  0  0
    8.9933   -5.9283   -1.7553 H   0  0  0  0  0  0  0  0  0  0  0  0
    2.9924   -0.0465    1.1543 H   0  0  0  0  0  0  0  0  0  0  0  0
    3.7412    1.4345    0.5236 H   0  0  0  0  0  0  0  0  0  0  0  0
    5.0467    0.1001   -1.1214 H   0  0  0  0  0  0  0  0  0  0  0  0
    9.3607   -7.1997    2.8221 H   0  0  0  0  0  0  0  0  0  0  0  0
    4.7907    0.6101    2.3500 H   0  0  0  0  0  0  0  0  0  0  0  0
  1  4  1  0  0  0  0
  1  5  2  0  0  0  0
  2  3  2  0  0  0  0
  2  6  1  0  0  0  0
  2  8  1  0  0  0  0
  3  5  1  0  0  0  0
  3 13  1  0  0  0  0
  4  6  2  0  0  0  0
  4 23  1  0  0  0  0
  5 30  1  0  0  0  0
  6 31  1  0  0  0  0
  7  9  1  0  0  0  0
  7 11  2  0  0  0  0
  8 25  1  0  0  0  0
  8 26  2  0  0  0  0
  9 10  2  0  0  0  0
  9 19  1  0  0  0  0
 10 12  1  0  0  0  0
 10 21  1  0  0  0  0
 11 20  1  0  0  0  0
 11 24  1  0  0  0  0
 12 24  1  0  0  0  0
 12 27  2  0  0  0  0
 13 16  1  0  0  0  0
 14 15  1  0  0  0  0
 14 17  1  0  0  0  0
 15 18  1  0  0  0  0
 16 25  1  0  0  0  0
 17 28  1  0  0  0  0
 18 23  1  0  0  0  0
 18 28  1  0  0  0  0
 21 25  1  0  0  0  0
 22 23  1  0  0  0  0
 22 29  1  0  0  0  0
  1 32  1  0  0  0  0
  7 33  1  0  0  0  0
 13 34  1  0  0  0  0
 13 35  1  0  0  0  0
 14 36  1  0  0  0  0
 14 37  1  0  0  0  0
 15 38  1  0  0  0  0
 15 39  1  0  0  0  0
 16 40  1  0  0  0  0
 16 41  1  0  0  0  0
 17 42  1  0  0  0  0
 17 43  1  0  0  0  0
 18 44  1  0  0  0  0
 19 45  1  0  0  0  0
 19 46  1  0  0  0  0
 19 47  1  0  0  0  0
 20 48  1  0  0  0  0
 20 49  1  0  0  0  0
 20 50  1  0  0  0  0
 21 51  1  0  0  0  0
 21 52  1  0  0  0  0
 22 53  1  0  0  0  0
 22 54  1  0  0  0  0
 23 55  1  0  0  0  0
 24 56  1  0  0  0  0
 29 57  1  0  0  0  0
M  END
> <Molecule Name>
cmp_7a

> <mmff94s_NoEstat>
92.74

> <Ki_nM>
10

$$$$
Compound_7
  -OEChem-05301814333D

 57 60  0     1  0  0  0  0  0999 V2000
   -1.9563   -4.1638    1.0613 C   0  0  0  0  0  0  0  0  0  0  0  0
   -1.9490   -6.8717    1.7460 C   0  0  0  0  0  0  0  0  0  0  0  0
   -3.1650   -6.2225    1.4858 C   0  0  0  0  0  0  0  0  0  0  0  0
   -0.7501   -4.8157    1.3106 C   0  0  0  0  0  0  0  0  0  0  0  0
   -3.1602   -4.8621    1.1542 C   0  0  0  0  0  0  0  0  0  0  0  0
   -0.7428   -6.1669    1.6573 C   0  0  0  0  0  0  0  0  0  0  0  0
   -6.3336  -11.4158    4.3017 C   0  0  0  0  0  0  0  0  0  0  0  0
   -1.9355   -8.3059    2.1430 C   0  0  0  0  0  0  0  0  0  0  0  0
   -5.3820  -11.3518    3.2027 C   0  0  0  0  0  0  0  0  0  0  0  0
   -4.2609  -10.6065    3.3124 C   0  0  0  0  0  0  0  0  0  0  0  0
   -6.1197  -10.7454    5.4420 C   0  0  0  0  0  0  0  0  0  0  0  0
   -4.0164   -9.8541    4.5994 C   0  0  0  0  0  0  0  0  0  0  0  0
   -4.4604   -6.9680    1.6240 C   0  0  0  0  0  0  0  0  0  0  0  0
    2.2613   -2.9180   -1.8817 C   0  0  0  0  0  0  0  0  0  0  0  0
    2.0182   -2.7372   -0.4043 C   0  0  0  0  0  0  0  0  0  0  0  0
   -4.2557   -8.4247    1.2427 C   0  0  0  0  0  0  0  0  0  0  0  0
    1.7788   -4.3351   -2.1071 C   0  0  0  0  0  0  0  0  0  0  0  0
    0.7087   -3.4842   -0.2196 C   0  0  2  0  0  0  0  0  0  0  0  0
   -5.7796  -12.1739    2.0080 C   0  0  0  0  0  0  0  0  0  0  0  0
   -7.0570  -10.7691    6.6065 C   0  0  0  0  0  0  0  0  0  0  0  0
   -3.2076  -10.4285    2.2784 C   0  0  0  0  0  0  0  0  0  0  0  0
    0.5609   -2.8282    2.1820 C   0  0  0  0  0  0  0  0  0  0  0  0
    0.5047   -4.0085    1.1886 C   0  0  1  0  0  0  0  0  0  0  0  0
   -4.9836   -9.9847    5.5780 N   0  0  0  0  0  0  0  0  0  0  0  0
   -3.1289   -9.0112    1.9611 N   0  0  0  0  0  0  0  0  0  0  0  0
   -0.9036   -8.7849    2.6074 O   0  0  0  0  0  0  0  0  0  0  0  0
   -3.0066   -9.1684    4.7511 O   0  0  0  0  0  0  0  0  0  0  0  0
    0.7385   -4.5806   -1.1489 O   0  0  0  0  0  0  0  0  0  0  0  0
    0.4608   -3.3284    3.5108 O   0  0  0  0  0  0  0  0  0  0  0  0
   -4.6120   -3.9637    0.8705 Cl  0  0  0  0  0  0  0  0  0  0  0  0
    0.8277   -6.8857    1.8831 Cl  0  0  0  0  0  0  0  0  0  0  0  0
   -1.9519   -3.1074    0.8001 H   0  0  0  0  0  0  0  0  0  0  0  0
   -7.2262  -12.0212    4.1752 H   0  0  0  0  0  0  0  0  0  0  0  0
   -4.7990   -6.8894    2.6643 H   0  0  0  0  0  0  0  0  0  0  0  0
   -5.2477   -6.5677    0.9782 H   0  0  0  0  0  0  0  0  0  0  0  0
    1.6394   -2.2159   -2.4497 H   0  0  0  0  0  0  0  0  0  0  0  0
    3.3027   -2.7691   -2.1784 H   0  0  0  0  0  0  0  0  0  0  0  0
    2.8274   -3.2139    0.1623 H   0  0  0  0  0  0  0  0  0  0  0  0
    1.9567   -1.6890   -0.0991 H   0  0  0  0  0  0  0  0  0  0  0  0
   -5.1645   -8.9928    1.4705 H   0  0  0  0  0  0  0  0  0  0  0  0
   -4.0464   -8.5257    0.1707 H   0  0  0  0  0  0  0  0  0  0  0  0
    1.3931   -4.4915   -3.1184 H   0  0  0  0  0  0  0  0  0  0  0  0
    2.5788   -5.0599   -1.9222 H   0  0  0  0  0  0  0  0  0  0  0  0
   -0.1338   -2.8418   -0.5102 H   0  0  0  0  0  0  0  0  0  0  0  0
   -6.3762  -11.5644    1.3352 H   0  0  0  0  0  0  0  0  0  0  0  0
   -6.3592  -13.0317    2.3385 H   0  0  0  0  0  0  0  0  0  0  0  0
   -4.8855  -12.5194    1.4961 H   0  0  0  0  0  0  0  0  0  0  0  0
   -6.7907  -11.5857    7.2763 H   0  0  0  0  0  0  0  0  0  0  0  0
   -8.0785  -10.9098    6.2543 H   0  0  0  0  0  0  0  0  0  0  0  0
   -6.9967   -9.8248    7.1466 H   0  0  0  0  0  0  0  0  0  0  0  0
   -3.4757  -11.0034    1.3886 H   0  0  0  0  0  0  0  0  0  0  0  0
   -2.2523  -10.7842    2.6723 H   0  0  0  0  0  0  0  0  0  0  0  0
   -0.2755   -2.1388    2.0234 H   0  0  0  0  0  0  0  0  0  0  0  0
    1.4941   -2.2629    2.0910 H   0  0  0  0  0  0  0  0  0  0  0  0
    1.3744   -4.6539    1.4133 H   0  0  0  0  0  0  0  0  0  0  0  0
   -4.8458   -9.4870    6.4531 H   0  0  0  0  0  0  0  0  0  0  0  0
    0.4999   -2.5593    4.1011 H   0  0  0  0  0  0  0  0  0  0  0  0
  1  4  1  0  0  0  0
  1  5  2  0  0  0  0
  2  3  2  0  0  0  0
  2  6  1  0  0  0  0
  2  8  1  0  0  0  0
  3  5  1  0  0  0  0
  3 13  1  0  0  0  0
  4  6  2  0  0  0  0
  4 23  1  0  0  0  0
  5 30  1  0  0  0  0
  6 31  1  0  0  0  0
  7  9  1  0  0  0  0
  7 11  2  0  0  0  0
  8 25  1  0  0  0  0
  8 26  2  0  0  0  0
  9 10  2  0  0  0  0
  9 19  1  0  0  0  0
 10 12  1  0  0  0  0
 10 21  1  0  0  0  0
 11 20  1  0  0  0  0
 11 24  1  0  0  0  0
 12 24  1  0  0  0  0
 12 27  2  0  0  0  0
 13 16  1  0  0  0  0
 14 15  1  0  0  0  0
 14 17  1  0  0  0  0
 15 18  1  0  0  0  0
 16 25  1  0  0  0  0
 17 28  1  0  0  0  0
 18 23  1  0  0  0  0
 18 28  1  0  0  0  0
 21 25  1  0  0  0  0
 22 23  1  0  0  0  0
 22 29  1  0  0  0  0
  1 32  1  0  0  0  0
  7 33  1  0  0  0  0
 13 34  1  0  0  0  0
 13 35  1  0  0  0  0
 14 36  1  0  0  0  0
 14 37  1  0  0  0  0
 15 38  1  0  0  0  0
 15 39  1  0  0  0  0
 16 40  1  0  0  0  0
 16 41  1  0  0  0  0
 17 42  1  0  0  0  0
 17 43  1  0  0  0  0
 18 44  1  0  0  0  0
 19 45  1  0  0  0  0
 19 46  1  0  0  0  0
 19 47  1  0  0  0  0
 20 48  1  0  0  0  0
 20 49  1  0  0  0  0
 20 50  1  0  0  0  0
 21 51  1  0  0  0  0
 21 52  1  0  0  0  0
 22 53  1  0  0  0  0
 22 54  1  0  0  0  0
 23 55  1  0  0  0  0
 24 56  1  0  0  0  0
 29 57  1  0  0  0  0
M  END
> <Molecule Name>
cmp_7b

> <mmff94s_NoEstat>
92.84

> <Ki_nM>
8

$$$$
Compound_8
  -OEChem-05301814333D

 57 60  0     1  0  0  0  0  0999 V2000
   -0.1893   -4.4068    3.5245 C   0  0  0  0  0  0  0  0  0  0  0  0
    2.0911   -3.1611    4.5494 C   0  0  0  0  0  0  0  0  0  0  0  0
    1.1409   -3.7050    5.4265 C   0  0  0  0  0  0  0  0  0  0  0  0
    0.7625   -3.8742    2.6571 C   0  0  0  0  0  0  0  0  0  0  0  0
   -0.0047   -4.3177    4.9042 C   0  0  0  0  0  0  0  0  0  0  0  0
    1.9005   -3.2473    3.1652 C   0  0  0  0  0  0  0  0  0  0  0  0
    4.0255   -0.2593   10.4010 C   0  0  0  0  0  0  0  0  0  0  0  0
    3.2937   -2.4669    5.0845 C   0  0  0  0  0  0  0  0  0  0  0  0
    4.5725   -1.2182    9.4531 C   0  0  0  0  0  0  0  0  0  0  0  0
    4.2666   -1.1316    8.1403 C   0  0  0  0  0  0  0  0  0  0  0  0
    3.2149    0.7281    9.9965 C   0  0  0  0  0  0  0  0  0  0  0  0
    3.3566   -0.0160    7.6825 C   0  0  0  0  0  0  0  0  0  0  0  0
    1.3247   -3.5733    6.9103 C   0  0  0  0  0  0  0  0  0  0  0  0
   -1.6639   -1.2826   -0.0637 C   0  0  0  0  0  0  0  0  0  0  0  0
   -0.6783   -1.7734    0.9669 C   0  0  0  0  0  0  0  0  0  0  0  0
    2.8062   -3.6041    7.2471 C   0  0  0  0  0  0  0  0  0  0  0  0
   -1.4185   -2.2388   -1.2116 C   0  0  0  0  0  0  0  0  0  0  0  0
   -0.7548   -3.2771    0.7666 C   0  0  2  0  0  0  0  0  0  0  0  0
    5.4688   -2.2487   10.0823 C   0  0  0  0  0  0  0  0  0  0  0  0
    2.6205    1.7437   10.9187 C   0  0  0  0  0  0  0  0  0  0  0  0
    4.7303   -2.0393    7.0582 C   0  0  0  0  0  0  0  0  0  0  0  0
    0.4336   -5.4794    0.7256 C   0  0  0  0  0  0  0  0  0  0  0  0
    0.5047   -4.0085    1.1886 C   0  0  2  0  0  0  0  0  0  0  0  0
    2.8940    0.8388    8.6652 N   0  0  0  0  0  0  0  0  0  0  0  0
    3.5557   -2.6412    6.4467 N   0  0  0  0  0  0  0  0  0  0  0  0
    3.9751   -1.7849    4.3226 O   0  0  0  0  0  0  0  0  0  0  0  0
    3.0551    0.1103    6.4967 O   0  0  0  0  0  0  0  0  0  0  0  0
   -0.9917   -3.4827   -0.6364 O   0  0  0  0  0  0  0  0  0  0  0  0
    1.6818   -6.1131    0.9831 O   0  0  0  0  0  0  0  0  0  0  0  0
   -1.2571   -4.9673    5.9067 Cl  0  0  0  0  0  0  0  0  0  0  0  0
    3.0465   -2.6774    1.9838 Cl  0  0  0  0  0  0  0  0  0  0  0  0
   -1.0777   -4.8860    3.1182 H   0  0  0  0  0  0  0  0  0  0  0  0
    4.2895   -0.3636   11.4492 H   0  0  0  0  0  0  0  0  0  0  0  0
    0.8790   -2.6250    7.2344 H   0  0  0  0  0  0  0  0  0  0  0  0
    0.8450   -4.3834    7.4677 H   0  0  0  0  0  0  0  0  0  0  0  0
   -2.6867   -1.4037    0.3123 H   0  0  0  0  0  0  0  0  0  0  0  0
   -1.5244   -0.2351   -0.3432 H   0  0  0  0  0  0  0  0  0  0  0  0
    0.3227   -1.3942    0.7280 H   0  0  0  0  0  0  0  0  0  0  0  0
   -0.9271   -1.4670    1.9866 H   0  0  0  0  0  0  0  0  0  0  0  0
    2.9439   -3.3754    8.3098 H   0  0  0  0  0  0  0  0  0  0  0  0
    3.2346   -4.5946    7.0501 H   0  0  0  0  0  0  0  0  0  0  0  0
   -2.3120   -2.4014   -1.8208 H   0  0  0  0  0  0  0  0  0  0  0  0
   -0.6133   -1.8792   -1.8611 H   0  0  0  0  0  0  0  0  0  0  0  0
   -1.6251   -3.6828    1.3004 H   0  0  0  0  0  0  0  0  0  0  0  0
    4.8738   -3.1061   10.3840 H   0  0  0  0  0  0  0  0  0  0  0  0
    5.9586   -1.8170   10.9510 H   0  0  0  0  0  0  0  0  0  0  0  0
    6.2212   -2.5583    9.3619 H   0  0  0  0  0  0  0  0  0  0  0  0
    3.2872    2.6012   11.0002 H   0  0  0  0  0  0  0  0  0  0  0  0
    2.4749    1.3047   11.9053 H   0  0  0  0  0  0  0  0  0  0  0  0
    1.6560    2.0716   10.5324 H   0  0  0  0  0  0  0  0  0  0  0  0
    5.3740   -2.8113    7.4869 H   0  0  0  0  0  0  0  0  0  0  0  0
    5.2908   -1.4618    6.3189 H   0  0  0  0  0  0  0  0  0  0  0  0
    0.2443   -5.5454   -0.3513 H   0  0  0  0  0  0  0  0  0  0  0  0
   -0.3536   -6.0334    1.2474 H   0  0  0  0  0  0  0  0  0  0  0  0
    1.3383   -3.5432    0.6299 H   0  0  0  0  0  0  0  0  0  0  0  0
    2.2777    1.5968    8.3854 H   0  0  0  0  0  0  0  0  0  0  0  0
    1.5958   -7.0306    0.6794 H   0  0  0  0  0  0  0  0  0  0  0  0
  1  4  1  0  0  0  0
  1  5  2  0  0  0  0
  2  3  2  0  0  0  0
  2  6  1  0  0  0  0
  2  8  1  0  0  0  0
  3  5  1  0  0  0  0
  3 13  1  0  0  0  0
  4  6  2  0  0  0  0
  4 23  1  0  0  0  0
  5 30  1  0  0  0  0
  6 31  1  0  0  0  0
  7  9  1  0  0  0  0
  7 11  2  0  0  0  0
  8 25  1  0  0  0  0
  8 26  2  0  0  0  0
  9 10  2  0  0  0  0
  9 19  1  0  0  0  0
 10 12  1  0  0  0  0
 10 21  1  0  0  0  0
 11 20  1  0  0  0  0
 11 24  1  0  0  0  0
 12 24  1  0  0  0  0
 12 27  2  0  0  0  0
 13 16  1  0  0  0  0
 14 15  1  0  0  0  0
 14 17  1  0  0  0  0
 15 18  1  0  0  0  0
 16 25  1  0  0  0  0
 17 28  1  0  0  0  0
 18 23  1  0  0  0  0
 18 28  1  0  0  0  0
 21 25  1  0  0  0  0
 22 23  1  0  0  0  0
 22 29  1  0  0  0  0
  1 32  1  0  0  0  0
  7 33  1  0  0  0  0
 13 34  1  0  0  0  0
 13 35  1  0  0  0  0
 14 36  1  0  0  0  0
 14 37  1  0  0  0  0
 15 38  1  0  0  0  0
 15 39  1  0  0  0  0
 16 40  1  0  0  0  0
 16 41  1  0  0  0  0
 17 42  1  0  0  0  0
 17 43  1  0  0  0  0
 18 44  1  0  0  0  0
 19 45  1  0  0  0  0
 19 46  1  0  0  0  0
 19 47  1  0  0  0  0
 20 48  1  0  0  0  0
 20 49  1  0  0  0  0
 20 50  1  0  0  0  0
 21 51  1  0  0  0  0
 21 52  1  0  0  0  0
 22 53  1  0  0  0  0
 22 54  1  0  0  0  0
 23 55  1  0  0  0  0
 24 56  1  0  0  0  0
 29 57  1  0  0  0  0
M  END
> <Molecule Name>
cmp_7c

> <mmff94s_NoEstat>
92.50

> <Ki_nM>
110

$$$$
Compound_9
  -OEChem-05301814333D

 57 60  0     1  0  0  0  0  0999 V2000
    4.7549   -2.6849   -1.2437 C   0  0  0  0  0  0  0  0  0  0  0  0
    4.6197   -3.4963    1.4256 C   0  0  0  0  0  0  0  0  0  0  0  0
    4.9729   -4.4227    0.4332 C   0  0  0  0  0  0  0  0  0  0  0  0
    4.4146   -1.7658   -0.2530 C   0  0  0  0  0  0  0  0  0  0  0  0
    5.0274   -4.0099   -0.9037 C   0  0  0  0  0  0  0  0  0  0  0  0
    4.3416   -2.1683    1.0807 C   0  0  0  0  0  0  0  0  0  0  0  0
    3.8652   -9.3254    4.8689 C   0  0  0  0  0  0  0  0  0  0  0  0
    4.5132   -3.9249    2.8467 C   0  0  0  0  0  0  0  0  0  0  0  0
    4.7319   -8.1579    4.9236 C   0  0  0  0  0  0  0  0  0  0  0  0
    4.2709   -6.9464    4.5435 C   0  0  0  0  0  0  0  0  0  0  0  0
    2.5969   -9.2264    4.4477 C   0  0  0  0  0  0  0  0  0  0  0  0
    2.8398   -6.8330    4.0730 C   0  0  0  0  0  0  0  0  0  0  0  0
    5.2280   -5.8559    0.7986 C   0  0  0  0  0  0  0  0  0  0  0  0
    1.1112    0.9951   -2.3285 C   0  0  0  0  0  0  0  0  0  0  0  0
    2.5777    1.1425   -2.0090 C   0  0  0  0  0  0  0  0  0  0  0  0
    5.8393   -5.9288    2.1880 C   0  0  0  0  0  0  0  0  0  0  0  0
    0.6591    0.0067   -1.2745 C   0  0  0  0  0  0  0  0  0  0  0  0
    2.9465   -0.2784   -1.6187 C   0  0  1  0  0  0  0  0  0  0  0  0
    6.1164   -8.4539    5.4301 C   0  0  0  0  0  0  0  0  0  0  0  0
    1.6566  -10.3860    4.3679 C   0  0  0  0  0  0  0  0  0  0  0  0
    5.0338   -5.6706    4.5270 C   0  0  0  0  0  0  0  0  0  0  0  0
    5.3628    0.3140   -1.3445 C   0  0  0  0  0  0  0  0  0  0  0  0
    4.1395   -0.3595   -0.6862 C   0  0  2  0  0  0  0  0  0  0  0  0
    2.1048   -8.0034    4.0609 N   0  0  0  0  0  0  0  0  0  0  0  0
    5.0495   -5.1778    3.1586 N   0  0  0  0  0  0  0  0  0  0  0  0
    3.9650   -3.1779    3.6539 O   0  0  0  0  0  0  0  0  0  0  0  0
    2.3708   -5.7506    3.7243 O   0  0  0  0  0  0  0  0  0  0  0  0
    1.7856   -0.8311   -0.9754 O   0  0  0  0  0  0  0  0  0  0  0  0
    6.4279    0.3753   -0.4024 O   0  0  0  0  0  0  0  0  0  0  0  0
    5.3992   -5.0923   -2.2020 Cl  0  0  0  0  0  0  0  0  0  0  0  0
    3.9683   -0.9171    2.2335 Cl  0  0  0  0  0  0  0  0  0  0  0  0
    4.8006   -2.3629   -2.2821 H   0  0  0  0  0  0  0  0  0  0  0  0
    4.2722  -10.2836    5.1775 H   0  0  0  0  0  0  0  0  0  0  0  0
    4.2748   -6.3979    0.7718 H   0  0  0  0  0  0  0  0  0  0  0  0
    5.9202   -6.3495    0.1099 H   0  0  0  0  0  0  0  0  0  0  0  0
    0.5565    1.9365   -2.2970 H   0  0  0  0  0  0  0  0  0  0  0  0
    0.9899    0.5591   -3.3272 H   0  0  0  0  0  0  0  0  0  0  0  0
    3.1692    1.5204   -2.8474 H   0  0  0  0  0  0  0  0  0  0  0  0
    2.7023    1.8288   -1.1626 H   0  0  0  0  0  0  0  0  0  0  0  0
    5.9011   -6.9757    2.5053 H   0  0  0  0  0  0  0  0  0  0  0  0
    6.8517   -5.5066    2.1957 H   0  0  0  0  0  0  0  0  0  0  0  0
    0.3704    0.5180   -0.3500 H   0  0  0  0  0  0  0  0  0  0  0  0
   -0.1802   -0.6094   -1.6092 H   0  0  0  0  0  0  0  0  0  0  0  0
    3.1289   -0.8795   -2.5200 H   0  0  0  0  0  0  0  0  0  0  0  0
    6.7582   -8.7107    4.5920 H   0  0  0  0  0  0  0  0  0  0  0  0
    6.0737   -9.2853    6.1286 H   0  0  0  0  0  0  0  0  0  0  0  0
    6.5082   -7.5769    5.9382 H   0  0  0  0  0  0  0  0  0  0  0  0
    1.1200  -10.4899    5.3101 H   0  0  0  0  0  0  0  0  0  0  0  0
    2.2151  -11.3000    4.1679 H   0  0  0  0  0  0  0  0  0  0  0  0
    0.9420  -10.2253    3.5613 H   0  0  0  0  0  0  0  0  0  0  0  0
    6.0525   -5.8557    4.8766 H   0  0  0  0  0  0  0  0  0  0  0  0
    4.5440   -4.9494    5.1860 H   0  0  0  0  0  0  0  0  0  0  0  0
    5.1312    1.3400   -1.6503 H   0  0  0  0  0  0  0  0  0  0  0  0
    5.7069   -0.2378   -2.2254 H   0  0  0  0  0  0  0  0  0  0  0  0
    3.8848    0.2501    0.2009 H   0  0  0  0  0  0  0  0  0  0  0  0
    1.1397   -7.9564    3.7462 H   0  0  0  0  0  0  0  0  0  0  0  0
    7.1734    0.8028   -0.8529 H   0  0  0  0  0  0  0  0  0  0  0  0
  1  4  1  0  0  0  0
  1  5  2  0  0  0  0
  2  3  2  0  0  0  0
  2  6  1  0  0  0  0
  2  8  1  0  0  0  0
  3  5  1  0  0  0  0
  3 13  1  0  0  0  0
  4  6  2  0  0  0  0
  4 23  1  0  0  0  0
  5 30  1  0  0  0  0
  6 31  1  0  0  0  0
  7  9  1  0  0  0  0
  7 11  2  0  0  0  0
  8 25  1  0  0  0  0
  8 26  2  0  0  0  0
  9 10  2  0  0  0  0
  9 19  1  0  0  0  0
 10 12  1  0  0  0  0
 10 21  1  0  0  0  0
 11 20  1  0  0  0  0
 11 24  1  0  0  0  0
 12 24  1  0  0  0  0
 12 27  2  0  0  0  0
 13 16  1  0  0  0  0
 14 15  1  0  0  0  0
 14 17  1  0  0  0  0
 15 18  1  0  0  0  0
 16 25  1  0  0  0  0
 17 28  1  0  0  0  0
 18 23  1  0  0  0  0
 18 28  1  0  0  0  0
 21 25  1  0  0  0  0
 22 23  1  0  0  0  0
 22 29  1  0  0  0  0
  1 32  1  0  0  0  0
  7 33  1  0  0  0  0
 13 34  1  0  0  0  0
 13 35  1  0  0  0  0
 14 36  1  0  0  0  0
 14 37  1  0  0  0  0
 15 38  1  0  0  0  0
 15 39  1  0  0  0  0
 16 40  1  0  0  0  0
 16 41  1  0  0  0  0
 17 42  1  0  0  0  0
 17 43  1  0  0  0  0
 18 44  1  0  0  0  0
 19 45  1  0  0  0  0
 19 46  1  0  0  0  0
 19 47  1  0  0  0  0
 20 48  1  0  0  0  0
 20 49  1  0  0  0  0
 20 50  1  0  0  0  0
 21 51  1  0  0  0  0
 21 52  1  0  0  0  0
 22 53  1  0  0  0  0
 22 54  1  0  0  0  0
 23 55  1  0  0  0  0
 24 56  1  0  0  0  0
 29 57  1  0  0  0  0
M  END
> <Molecule Name>
cmp_7d

> <mmff94s_NoEstat>
92.65

> <Ki_nM>
135

$$$$
Compound_10
  -OEChem-05301814333D

 52 55  0     0  0  0  0  0  0999 V2000
    0.5473   -0.9244    0.1601 C   0  0  0  0  0  0  0  0  0  0  0  0
    1.9382   -0.9338    0.0750 C   0  0  0  0  0  0  0  0  0  0  0  0
    2.5844    0.3172   -0.2378 C   0  0  0  0  0  0  0  0  0  0  0  0
    1.9552   -3.2999    0.5806 C   0  0  0  0  0  0  0  0  0  0  0  0
    0.5545   -3.2977    0.6570 C   0  0  0  0  0  0  0  0  0  0  0  0
   -0.1426   -2.1000    0.4559 C   0  0  0  0  0  0  0  0  0  0  0  0
    2.6452   -2.1173    0.2888 C   0  0  0  0  0  0  0  0  0  0  0  0
    2.9392    0.9057   -1.4639 C   0  0  0  0  0  0  0  0  0  0  0  0
    2.9998    1.2309    0.6943 C   0  0  0  0  0  0  0  0  0  0  0  0
    0.8934   -9.3267    3.6087 C   0  0  0  0  0  0  0  0  0  0  0  0
    2.7173   -4.5526    0.8344 C   0  0  0  0  0  0  0  0  0  0  0  0
    2.0563   -7.6407    2.2816 C   0  0  0  0  0  0  0  0  0  0  0  0
    1.4115   -8.8228    2.3575 C   0  0  0  0  0  0  0  0  0  0  0  0
    1.0430   -8.6215    4.7388 C   0  0  0  0  0  0  0  0  0  0  0  0
    2.2251   -6.8468    3.5541 C   0  0  0  0  0  0  0  0  0  0  0  0
   -0.1814   -4.5565    1.0130 C   0  0  0  0  0  0  0  0  0  0  0  0
    0.5689   -5.7597    0.4668 C   0  0  0  0  0  0  0  0  0  0  0  0
    2.7361    0.3717   -2.8219 C   0  0  0  0  0  0  0  0  0  0  0  0
    2.9588    1.2900    2.1627 C   0  0  0  0  0  0  0  0  0  0  0  0
    0.5367   -9.0724    6.0712 C   0  0  0  0  0  0  0  0  0  0  0  0
    2.2087  -10.6021    1.1021 C   0  0  0  0  0  0  0  0  0  0  0  0
    2.6303   -7.0192    1.0592 C   0  0  0  0  0  0  0  0  0  0  0  0
    3.5296    2.0935   -1.3045 N   0  0  0  0  0  0  0  0  0  0  0  0
    1.6953   -7.4106    4.7017 N   0  0  0  0  0  0  0  0  0  0  0  0
    1.9740   -5.7364    0.8606 N   0  0  0  0  0  0  0  0  0  0  0  0
    3.9312   -4.4847    1.0124 O   0  0  0  0  0  0  0  0  0  0  0  0
    2.8038   -5.7616    3.5514 O   0  0  0  0  0  0  0  0  0  0  0  0
    3.5656    2.2954    0.0700 O   0  0  0  0  0  0  0  0  0  0  0  0
    1.1741   -9.6665    1.2970 O   0  0  0  0  0  0  0  0  0  0  0  0
   -1.8651   -1.9881    0.5842 Cl  0  0  0  0  0  0  0  0  0  0  0  0
    4.3795   -2.0369    0.0917 Cl  0  0  0  0  0  0  0  0  0  0  0  0
   -0.0020    0.0025    0.0017 H   0  0  0  0  0  0  0  0  0  0  0  0
    0.3832  -10.2847    3.6088 H   0  0  0  0  0  0  0  0  0  0  0  0
   -0.2586   -4.6184    2.1054 H   0  0  0  0  0  0  0  0  0  0  0  0
   -1.1936   -4.5850    0.5986 H   0  0  0  0  0  0  0  0  0  0  0  0
    0.1043   -6.6797    0.8389 H   0  0  0  0  0  0  0  0  0  0  0  0
    0.5386   -5.7785   -0.6296 H   0  0  0  0  0  0  0  0  0  0  0  0
    1.7632    0.6881   -3.2349 H   0  0  0  0  0  0  0  0  0  0  0  0
    3.5204    0.7076   -3.5233 H   0  0  0  0  0  0  0  0  0  0  0  0
    2.7639   -0.7323   -2.8438 H   0  0  0  0  0  0  0  0  0  0  0  0
    3.8650    0.8440    2.6096 H   0  0  0  0  0  0  0  0  0  0  0  0
    2.8812    2.3267    2.5390 H   0  0  0  0  0  0  0  0  0  0  0  0
    2.0866    0.7538    2.5801 H   0  0  0  0  0  0  0  0  0  0  0  0
    1.3034   -9.6579    6.5771 H   0  0  0  0  0  0  0  0  0  0  0  0
   -0.3554   -9.6838    5.9386 H   0  0  0  0  0  0  0  0  0  0  0  0
    0.2833   -8.2057    6.6810 H   0  0  0  0  0  0  0  0  0  0  0  0
    1.9663  -11.2424    0.2504 H   0  0  0  0  0  0  0  0  0  0  0  0
    2.3284  -11.2075    2.0042 H   0  0  0  0  0  0  0  0  0  0  0  0
    3.1390  -10.0663    0.8992 H   0  0  0  0  0  0  0  0  0  0  0  0
    2.4510   -7.6749    0.2036 H   0  0  0  0  0  0  0  0  0  0  0  0
    3.7054   -6.8796    1.1968 H   0  0  0  0  0  0  0  0  0  0  0  0
    1.7944   -6.8972    5.5730 H   0  0  0  0  0  0  0  0  0  0  0  0
  1  2  2  0  0  0  0
  1  6  1  0  0  0  0
  2  3  1  0  0  0  0
  2  7  1  0  0  0  0
  3  8  1  0  0  0  0
  3  9  2  0  0  0  0
  4  5  1  0  0  0  0
  4  7  2  0  0  0  0
  4 11  1  0  0  0  0
  5  6  2  0  0  0  0
  5 16  1  0  0  0  0
  6 30  1  0  0  0  0
  7 31  1  0  0  0  0
  8 18  1  0  0  0  0
  8 23  2  0  0  0  0
  9 19  1  0  0  0  0
  9 28  1  0  0  0  0
 10 13  1  0  0  0  0
 10 14  2  0  0  0  0
 11 25  1  0  0  0  0
 11 26  2  0  0  0  0
 12 13  2  0  0  0  0
 12 15  1  0  0  0  0
 12 22  1  0  0  0  0
 13 29  1  0  0  0  0
 14 20  1  0  0  0  0
 14 24  1  0  0  0  0
 15 24  1  0  0  0  0
 15 27  2  0  0  0  0
 16 17  1  0  0  0  0
 17 25  1  0  0  0  0
 21 29  1  0  0  0  0
 22 25  1  0  0  0  0
 23 28  1  0  0  0  0
  1 32  1  0  0  0  0
 10 33  1  0  0  0  0
 16 34  1  0  0  0  0
 16 35  1  0  0  0  0
 17 36  1  0  0  0  0
 17 37  1  0  0  0  0
 18 38  1  0  0  0  0
 18 39  1  0  0  0  0
 18 40  1  0  0  0  0
 19 41  1  0  0  0  0
 19 42  1  0  0  0  0
 19 43  1  0  0  0  0
 20 44  1  0  0  0  0
 20 45  1  0  0  0  0
 20 46  1  0  0  0  0
 21 47  1  0  0  0  0
 21 48  1  0  0  0  0
 21 49  1  0  0  0  0
 22 50  1  0  0  0  0
 22 51  1  0  0  0  0
 24 52  1  0  0  0  0
M  END
> <Molecule Name>
cmp_14

> <mmff94s_NoEstat>
86.75

> <Ki_nM>
0.15

$$$$
Compound_11
  -OEChem-05301814333D

 55 58  0     1  0  0  0  0  0999 V2000
    0.5473   -0.9244    0.1601 C   0  0  0  0  0  0  0  0  0  0  0  0
    1.9552   -3.2999    0.5806 C   0  0  0  0  0  0  0  0  0  0  0  0
    0.5545   -3.2977    0.6570 C   0  0  0  0  0  0  0  0  0  0  0  0
    1.9382   -0.9338    0.0750 C   0  0  0  0  0  0  0  0  0  0  0  0
   -0.1426   -2.1000    0.4559 C   0  0  0  0  0  0  0  0  0  0  0  0
    2.6452   -2.1173    0.2888 C   0  0  0  0  0  0  0  0  0  0  0  0
    0.8934   -9.3267    3.6087 C   0  0  0  0  0  0  0  0  0  0  0  0
    2.7173   -4.5526    0.8344 C   0  0  0  0  0  0  0  0  0  0  0  0
    2.0563   -7.6407    2.2816 C   0  0  0  0  0  0  0  0  0  0  0  0
    1.4115   -8.8228    2.3575 C   0  0  0  0  0  0  0  0  0  0  0  0
    1.0430   -8.6215    4.7388 C   0  0  0  0  0  0  0  0  0  0  0  0
    2.2251   -6.8468    3.5541 C   0  0  0  0  0  0  0  0  0  0  0  0
   -0.1814   -4.5565    1.0130 C   0  0  0  0  0  0  0  0  0  0  0  0
    0.5689   -5.7597    0.4668 C   0  0  0  0  0  0  0  0  0  0  0  0
    2.5898    0.2471   -2.8530 C   0  0  0  0  0  0  0  0  0  0  0  0
    2.9564    2.1396   -2.1230 C   0  0  0  0  0  0  0  0  0  0  0  0
    2.1432    0.9626   -1.5731 C   0  0  0  0  0  0  0  0  0  0  0  0
    0.5367   -9.0724    6.0712 C   0  0  0  0  0  0  0  0  0  0  0  0
    2.2087  -10.6021    1.1021 C   0  0  0  0  0  0  0  0  0  0  0  0
    3.1813    1.0849    1.9122 C   0  0  0  0  0  0  0  0  0  0  0  0
    2.6303   -7.0192    1.0592 C   0  0  0  0  0  0  0  0  0  0  0  0
    2.6150    0.3612   -0.2508 C   0  0  1  0  0  0  0  0  0  0  0  0
    1.6953   -7.4106    4.7017 N   0  0  0  0  0  0  0  0  0  0  0  0
    1.9740   -5.7364    0.8606 N   0  0  0  0  0  0  0  0  0  0  0  0
    3.9312   -4.4847    1.0124 O   0  0  0  0  0  0  0  0  0  0  0  0
    2.8038   -5.7616    3.5514 O   0  0  0  0  0  0  0  0  0  0  0  0
    3.1219    1.4777   -3.4004 O   0  0  0  0  0  0  0  0  0  0  0  0
    1.1741   -9.6665    1.2970 O   0  0  0  0  0  0  0  0  0  0  0  0
    2.3405    1.3018    0.7914 O   0  0  0  0  0  0  0  0  0  0  0  0
   -1.8649   -1.9876    0.5845 Cl  0  0  0  0  0  0  0  0  0  0  0  0
    4.3731   -2.0169    0.0938 Cl  0  0  0  0  0  0  0  0  0  0  0  0
    0.0057    0.0058    0.0002 H   0  0  0  0  0  0  0  0  0  0  0  0
    0.3832  -10.2847    3.6088 H   0  0  0  0  0  0  0  0  0  0  0  0
   -0.2590   -4.6183    2.1054 H   0  0  0  0  0  0  0  0  0  0  0  0
   -1.1931   -4.5848    0.5974 H   0  0  0  0  0  0  0  0  0  0  0  0
    0.1046   -6.6795    0.8395 H   0  0  0  0  0  0  0  0  0  0  0  0
    0.5384   -5.7787   -0.6296 H   0  0  0  0  0  0  0  0  0  0  0  0
    3.3765   -0.5053   -2.7413 H   0  0  0  0  0  0  0  0  0  0  0  0
    1.7794   -0.1536   -3.4684 H   0  0  0  0  0  0  0  0  0  0  0  0
    2.4070    3.0800   -2.2220 H   0  0  0  0  0  0  0  0  0  0  0  0
    3.9247    2.3258   -1.6482 H   0  0  0  0  0  0  0  0  0  0  0  0
    1.0653    1.1677   -1.5626 H   0  0  0  0  0  0  0  0  0  0  0  0
    1.3034   -9.6579    6.5771 H   0  0  0  0  0  0  0  0  0  0  0  0
   -0.3554   -9.6838    5.9386 H   0  0  0  0  0  0  0  0  0  0  0  0
    0.2833   -8.2057    6.6810 H   0  0  0  0  0  0  0  0  0  0  0  0
    1.9663  -11.2424    0.2504 H   0  0  0  0  0  0  0  0  0  0  0  0
    2.3284  -11.2075    2.0042 H   0  0  0  0  0  0  0  0  0  0  0  0
    3.1390  -10.0663    0.8992 H   0  0  0  0  0  0  0  0  0  0  0  0
    2.9489    1.8165    2.6899 H   0  0  0  0  0  0  0  0  0  0  0  0
    4.2268    1.1798    1.6083 H   0  0  0  0  0  0  0  0  0  0  0  0
    3.0061    0.0780    2.2984 H   0  0  0  0  0  0  0  0  0  0  0  0
    2.4510   -7.6749    0.2036 H   0  0  0  0  0  0  0  0  0  0  0  0
    3.7054   -6.8796    1.1968 H   0  0  0  0  0  0  0  0  0  0  0  0
    3.7096    0.2484   -0.2947 H   0  0  0  0  0  0  0  0  0  0  0  0
    1.7944   -6.8972    5.5730 H   0  0  0  0  0  0  0  0  0  0  0  0
  1  4  1  0  0  0  0
  1  5  2  0  0  0  0
  2  3  2  0  0  0  0
  2  6  1  0  0  0  0
  2  8  1  0  0  0  0
  3  5  1  0  0  0  0
  3 13  1  0  0  0  0
  4  6  2  0  0  0  0
  4 22  1  0  0  0  0
  5 30  1  0  0  0  0
  6 31  1  0  0  0  0
  7 10  1  0  0  0  0
  7 11  2  0  0  0  0
  8 24  1  0  0  0  0
  8 25  2  0  0  0  0
  9 10  2  0  0  0  0
  9 12  1  0  0  0  0
  9 21  1  0  0  0  0
 10 28  1  0  0  0  0
 11 18  1  0  0  0  0
 11 23  1  0  0  0  0
 12 23  1  0  0  0  0
 12 26  2  0  0  0  0
 13 14  1  0  0  0  0
 14 24  1  0  0  0  0
 15 17  1  0  0  0  0
 15 27  1  0  0  0  0
 16 17  1  0  0  0  0
 16 27  1  0  0  0  0
 17 22  1  0  0  0  0
 19 28  1  0  0  0  0
 20 29  1  0  0  0  0
 21 24  1  0  0  0  0
 22 29  1  0  0  0  0
  1 32  1  0  0  0  0
  7 33  1  0  0  0  0
 13 34  1  0  0  0  0
 13 35  1  0  0  0  0
 14 36  1  0  0  0  0
 14 37  1  0  0  0  0
 15 38  1  0  0  0  0
 15 39  1  0  0  0  0
 16 40  1  0  0  0  0
 16 41  1  0  0  0  0
 17 42  1  0  0  0  0
 18 43  1  0  0  0  0
 18 44  1  0  0  0  0
 18 45  1  0  0  0  0
 19 46  1  0  0  0  0
 19 47  1  0  0  0  0
 19 48  1  0  0  0  0
 20 49  1  0  0  0  0
 20 50  1  0  0  0  0
 20 51  1  0  0  0  0
 21 52  1  0  0  0  0
 21 53  1  0  0  0  0
 22 54  1  0  0  0  0
 23 55  1  0  0  0  0
M  END
> <Molecule Name>
cmp_23a

> <mmff94s_NoEstat>
99.69

> <Ki_nM>
0.1

$$$$
Compound_12
  -OEChem-05301814333D

 55 58  0     1  0  0  0  0  0999 V2000
    0.5473   -0.9244    0.1601 C   0  0  0  0  0  0  0  0  0  0  0  0
    1.9552   -3.2999    0.5806 C   0  0  0  0  0  0  0  0  0  0  0  0
    0.5545   -3.2977    0.6570 C   0  0  0  0  0  0  0  0  0  0  0  0
    1.9382   -0.9338    0.0750 C   0  0  0  0  0  0  0  0  0  0  0  0
   -0.1426   -2.1000    0.4559 C   0  0  0  0  0  0  0  0  0  0  0  0
    2.6452   -2.1173    0.2888 C   0  0  0  0  0  0  0  0  0  0  0  0
    0.8934   -9.3267    3.6087 C   0  0  0  0  0  0  0  0  0  0  0  0
    2.7173   -4.5526    0.8344 C   0  0  0  0  0  0  0  0  0  0  0  0
    2.0563   -7.6407    2.2816 C   0  0  0  0  0  0  0  0  0  0  0  0
    1.4115   -8.8228    2.3575 C   0  0  0  0  0  0  0  0  0  0  0  0
    1.0430   -8.6215    4.7388 C   0  0  0  0  0  0  0  0  0  0  0  0
    2.2251   -6.8468    3.5541 C   0  0  0  0  0  0  0  0  0  0  0  0
   -0.1814   -4.5565    1.0130 C   0  0  0  0  0  0  0  0  0  0  0  0
    0.5689   -5.7597    0.4668 C   0  0  0  0  0  0  0  0  0  0  0  0
    3.1325    2.7457    0.6611 C   0  0  0  0  0  0  0  0  0  0  0  0
    2.9068    1.3353    2.1473 C   0  0  0  0  0  0  0  0  0  0  0  0
    2.2903    1.4680    0.7504 C   0  0  0  0  0  0  0  0  0  0  0  0
    0.5367   -9.0724    6.0712 C   0  0  0  0  0  0  0  0  0  0  0  0
    2.2087  -10.6021    1.1021 C   0  0  0  0  0  0  0  0  0  0  0  0
    2.9014    0.1032   -2.5690 C   0  0  0  0  0  0  0  0  0  0  0  0
    2.6303   -7.0192    1.0592 C   0  0  0  0  0  0  0  0  0  0  0  0
    2.6150    0.3612   -0.2508 C   0  0  2  0  0  0  0  0  0  0  0  0
    1.6953   -7.4106    4.7017 N   0  0  0  0  0  0  0  0  0  0  0  0
    1.9740   -5.7364    0.8606 N   0  0  0  0  0  0  0  0  0  0  0  0
    3.9312   -4.4847    1.0124 O   0  0  0  0  0  0  0  0  0  0  0  0
    2.8038   -5.7616    3.5514 O   0  0  0  0  0  0  0  0  0  0  0  0
    3.4683    2.6678    2.0677 O   0  0  0  0  0  0  0  0  0  0  0  0
    1.1741   -9.6665    1.2970 O   0  0  0  0  0  0  0  0  0  0  0  0
    2.1942    0.7889   -1.5492 O   0  0  0  0  0  0  0  0  0  0  0  0
   -1.8649   -1.9876    0.5845 Cl  0  0  0  0  0  0  0  0  0  0  0  0
    4.3731   -2.0169    0.0938 Cl  0  0  0  0  0  0  0  0  0  0  0  0
    0.0057    0.0058    0.0002 H   0  0  0  0  0  0  0  0  0  0  0  0
    0.3832  -10.2847    3.6088 H   0  0  0  0  0  0  0  0  0  0  0  0
   -0.2590   -4.6183    2.1054 H   0  0  0  0  0  0  0  0  0  0  0  0
   -1.1931   -4.5848    0.5974 H   0  0  0  0  0  0  0  0  0  0  0  0
    0.1046   -6.6795    0.8395 H   0  0  0  0  0  0  0  0  0  0  0  0
    0.5384   -5.7787   -0.6296 H   0  0  0  0  0  0  0  0  0  0  0  0
    4.0316    2.6941    0.0395 H   0  0  0  0  0  0  0  0  0  0  0  0
    2.5729    3.6558    0.4275 H   0  0  0  0  0  0  0  0  0  0  0  0
    2.1887    1.2463    2.9673 H   0  0  0  0  0  0  0  0  0  0  0  0
    3.6936    0.5833    2.2622 H   0  0  0  0  0  0  0  0  0  0  0  0
    1.2139    1.6779    0.7865 H   0  0  0  0  0  0  0  0  0  0  0  0
    1.3034   -9.6579    6.5771 H   0  0  0  0  0  0  0  0  0  0  0  0
   -0.3554   -9.6838    5.9386 H   0  0  0  0  0  0  0  0  0  0  0  0
    0.2833   -8.2057    6.6810 H   0  0  0  0  0  0  0  0  0  0  0  0
    1.9663  -11.2424    0.2504 H   0  0  0  0  0  0  0  0  0  0  0  0
    2.3284  -11.2075    2.0042 H   0  0  0  0  0  0  0  0  0  0  0  0
    3.1390  -10.0663    0.8992 H   0  0  0  0  0  0  0  0  0  0  0  0
    2.5593    0.4501   -3.5471 H   0  0  0  0  0  0  0  0  0  0  0  0
    2.7312   -0.9720   -2.4719 H   0  0  0  0  0  0  0  0  0  0  0  0
    3.9686    0.3121   -2.4636 H   0  0  0  0  0  0  0  0  0  0  0  0
    2.4510   -7.6749    0.2036 H   0  0  0  0  0  0  0  0  0  0  0  0
    3.7054   -6.8796    1.1968 H   0  0  0  0  0  0  0  0  0  0  0  0
    3.7096    0.2484   -0.2947 H   0  0  0  0  0  0  0  0  0  0  0  0
    1.7944   -6.8972    5.5730 H   0  0  0  0  0  0  0  0  0  0  0  0
  1  4  1  0  0  0  0
  1  5  2  0  0  0  0
  2  3  2  0  0  0  0
  2  6  1  0  0  0  0
  2  8  1  0  0  0  0
  3  5  1  0  0  0  0
  3 13  1  0  0  0  0
  4  6  2  0  0  0  0
  4 22  1  0  0  0  0
  5 30  1  0  0  0  0
  6 31  1  0  0  0  0
  7 10  1  0  0  0  0
  7 11  2  0  0  0  0
  8 24  1  0  0  0  0
  8 25  2  0  0  0  0
  9 10  2  0  0  0  0
  9 12  1  0  0  0  0
  9 21  1  0  0  0  0
 10 28  1  0  0  0  0
 11 18  1  0  0  0  0
 11 23  1  0  0  0  0
 12 23  1  0  0  0  0
 12 26  2  0  0  0  0
 13 14  1  0  0  0  0
 14 24  1  0  0  0  0
 15 17  1  0  0  0  0
 15 27  1  0  0  0  0
 16 17  1  0  0  0  0
 16 27  1  0  0  0  0
 17 22  1  0  0  0  0
 19 28  1  0  0  0  0
 20 29  1  0  0  0  0
 21 24  1  0  0  0  0
 22 29  1  0  0  0  0
  1 32  1  0  0  0  0
  7 33  1  0  0  0  0
 13 34  1  0  0  0  0
 13 35  1  0  0  0  0
 14 36  1  0  0  0  0
 14 37  1  0  0  0  0
 15 38  1  0  0  0  0
 15 39  1  0  0  0  0
 16 40  1  0  0  0  0
 16 41  1  0  0  0  0
 17 42  1  0  0  0  0
 18 43  1  0  0  0  0
 18 44  1  0  0  0  0
 18 45  1  0  0  0  0
 19 46  1  0  0  0  0
 19 47  1  0  0  0  0
 19 48  1  0  0  0  0
 20 49  1  0  0  0  0
 20 50  1  0  0  0  0
 20 51  1  0  0  0  0
 21 52  1  0  0  0  0
 21 53  1  0  0  0  0
 22 54  1  0  0  0  0
 23 55  1  0  0  0  0
M  END
> <Molecule Name>
cmp_23b

> <mmff94s_NoEstat>
99.78

> <Ki_nM>
16

$$$$
Compound_13
  -OEChem-05301814333D

 52 55  0     1  0  0  0  0  0999 V2000
    0.5473   -0.9244    0.1601 C   0  0  0  0  0  0  0  0  0  0  0  0
    1.9552   -3.2999    0.5806 C   0  0  0  0  0  0  0  0  0  0  0  0
    0.5545   -3.2977    0.6570 C   0  0  0  0  0  0  0  0  0  0  0  0
    1.9382   -0.9338    0.0750 C   0  0  0  0  0  0  0  0  0  0  0  0
   -0.1426   -2.1000    0.4559 C   0  0  0  0  0  0  0  0  0  0  0  0
    2.6452   -2.1173    0.2888 C   0  0  0  0  0  0  0  0  0  0  0  0
    0.8934   -9.3267    3.6087 C   0  0  0  0  0  0  0  0  0  0  0  0
    2.7173   -4.5526    0.8344 C   0  0  0  0  0  0  0  0  0  0  0  0
    2.0563   -7.6407    2.2816 C   0  0  0  0  0  0  0  0  0  0  0  0
    1.4115   -8.8228    2.3575 C   0  0  0  0  0  0  0  0  0  0  0  0
    1.0430   -8.6215    4.7388 C   0  0  0  0  0  0  0  0  0  0  0  0
    2.2251   -6.8468    3.5541 C   0  0  0  0  0  0  0  0  0  0  0  0
   -0.1814   -4.5565    1.0130 C   0  0  0  0  0  0  0  0  0  0  0  0
    0.5689   -5.7597    0.4668 C   0  0  0  0  0  0  0  0  0  0  0  0
    2.5898    0.2471   -2.8530 C   0  0  0  0  0  0  0  0  0  0  0  0
    2.9564    2.1396   -2.1230 C   0  0  0  0  0  0  0  0  0  0  0  0
    2.1432    0.9626   -1.5731 C   0  0  0  0  0  0  0  0  0  0  0  0
    0.5367   -9.0724    6.0712 C   0  0  0  0  0  0  0  0  0  0  0  0
    2.2087  -10.6021    1.1021 C   0  0  0  0  0  0  0  0  0  0  0  0
    2.6303   -7.0192    1.0592 C   0  0  0  0  0  0  0  0  0  0  0  0
    2.6150    0.3612   -0.2508 C   0  0  1  0  0  0  0  0  0  0  0  0
    1.6953   -7.4106    4.7017 N   0  0  0  0  0  0  0  0  0  0  0  0
    1.9740   -5.7364    0.8606 N   0  0  0  0  0  0  0  0  0  0  0  0
    3.9312   -4.4847    1.0124 O   0  0  0  0  0  0  0  0  0  0  0  0
    2.8038   -5.7616    3.5514 O   0  0  0  0  0  0  0  0  0  0  0  0
    3.1219    1.4777   -3.4004 O   0  0  0  0  0  0  0  0  0  0  0  0
    2.3405    1.3018    0.7914 O   0  0  0  0  0  0  0  0  0  0  0  0
    1.1741   -9.6665    1.2970 O   0  0  0  0  0  0  0  0  0  0  0  0
   -1.8649   -1.9876    0.5845 Cl  0  0  0  0  0  0  0  0  0  0  0  0
    4.3731   -2.0169    0.0938 Cl  0  0  0  0  0  0  0  0  0  0  0  0
    0.0057    0.0058    0.0002 H   0  0  0  0  0  0  0  0  0  0  0  0
    0.3832  -10.2847    3.6088 H   0  0  0  0  0  0  0  0  0  0  0  0
   -0.2590   -4.6183    2.1054 H   0  0  0  0  0  0  0  0  0  0  0  0
   -1.1931   -4.5848    0.5974 H   0  0  0  0  0  0  0  0  0  0  0  0
    0.1046   -6.6795    0.8395 H   0  0  0  0  0  0  0  0  0  0  0  0
    0.5384   -5.7787   -0.6296 H   0  0  0  0  0  0  0  0  0  0  0  0
    3.3765   -0.5053   -2.7413 H   0  0  0  0  0  0  0  0  0  0  0  0
    1.7794   -0.1536   -3.4684 H   0  0  0  0  0  0  0  0  0  0  0  0
    2.4070    3.0800   -2.2220 H   0  0  0  0  0  0  0  0  0  0  0  0
    3.9247    2.3258   -1.6482 H   0  0  0  0  0  0  0  0  0  0  0  0
    1.0653    1.1677   -1.5626 H   0  0  0  0  0  0  0  0  0  0  0  0
    1.3034   -9.6579    6.5771 H   0  0  0  0  0  0  0  0  0  0  0  0
   -0.3554   -9.6838    5.9386 H   0  0  0  0  0  0  0  0  0  0  0  0
    0.2833   -8.2057    6.6810 H   0  0  0  0  0  0  0  0  0  0  0  0
    1.9663  -11.2424    0.2504 H   0  0  0  0  0  0  0  0  0  0  0  0
    2.3284  -11.2075    2.0042 H   0  0  0  0  0  0  0  0  0  0  0  0
    3.1390  -10.0663    0.8992 H   0  0  0  0  0  0  0  0  0  0  0  0
    2.4510   -7.6749    0.2036 H   0  0  0  0  0  0  0  0  0  0  0  0
    3.7054   -6.8796    1.1968 H   0  0  0  0  0  0  0  0  0  0  0  0
    3.7096    0.2484   -0.2947 H   0  0  0  0  0  0  0  0  0  0  0  0
    1.7944   -6.8972    5.5730 H   0  0  0  0  0  0  0  0  0  0  0  0
    2.6938    0.9149    1.6056 H   0  0  0  0  0  0  0  0  0  0  0  0
  1  4  1  0  0  0  0
  1  5  2  0  0  0  0
  2  3  2  0  0  0  0
  2  6  1  0  0  0  0
  2  8  1  0  0  0  0
  3  5  1  0  0  0  0
  3 13  1  0  0  0  0
  4  6  2  0  0  0  0
  4 21  1  0  0  0  0
  5 29  1  0  0  0  0
  6 30  1  0  0  0  0
  7 10  1  0  0  0  0
  7 11  2  0  0  0  0
  8 23  1  0  0  0  0
  8 24  2  0  0  0  0
  9 10  2  0  0  0  0
  9 12  1  0  0  0  0
  9 20  1  0  0  0  0
 10 28  1  0  0  0  0
 11 18  1  0  0  0  0
 11 22  1  0  0  0  0
 12 22  1  0  0  0  0
 12 25  2  0  0  0  0
 13 14  1  0  0  0  0
 14 23  1  0  0  0  0
 15 17  1  0  0  0  0
 15 26  1  0  0  0  0
 16 17  1  0  0  0  0
 16 26  1  0  0  0  0
 17 21  1  0  0  0  0
 19 28  1  0  0  0  0
 20 23  1  0  0  0  0
 21 27  1  0  0  0  0
  1 31  1  0  0  0  0
  7 32  1  0  0  0  0
 13 33  1  0  0  0  0
 13 34  1  0  0  0  0
 14 35  1  0  0  0  0
 14 36  1  0  0  0  0
 15 37  1  0  0  0  0
 15 38  1  0  0  0  0
 16 39  1  0  0  0  0
 16 40  1  0  0  0  0
 17 41  1  0  0  0  0
 18 42  1  0  0  0  0
 18 43  1  0  0  0  0
 18 44  1  0  0  0  0
 19 45  1  0  0  0  0
 19 46  1  0  0  0  0
 19 47  1  0  0  0  0
 20 48  1  0  0  0  0
 20 49  1  0  0  0  0
 21 50  1  0  0  0  0
 22 51  1  0  0  0  0
 27 52  1  0  0  0  0
M  END
> <Molecule Name>
cmp_25a

> <mmff94s_NoEstat>
94.51

> <Ki_nM>
1.5

$$$$
Compound_14
  -OEChem-05301814333D

 52 55  0     1  0  0  0  0  0999 V2000
    0.5473   -0.9244    0.1601 C   0  0  0  0  0  0  0  0  0  0  0  0
    1.9552   -3.2999    0.5806 C   0  0  0  0  0  0  0  0  0  0  0  0
    0.5545   -3.2977    0.6570 C   0  0  0  0  0  0  0  0  0  0  0  0
    1.9382   -0.9338    0.0750 C   0  0  0  0  0  0  0  0  0  0  0  0
   -0.1426   -2.1000    0.4559 C   0  0  0  0  0  0  0  0  0  0  0  0
    2.6452   -2.1173    0.2888 C   0  0  0  0  0  0  0  0  0  0  0  0
    0.8934   -9.3267    3.6087 C   0  0  0  0  0  0  0  0  0  0  0  0
    2.7173   -4.5526    0.8344 C   0  0  0  0  0  0  0  0  0  0  0  0
    2.0563   -7.6407    2.2816 C   0  0  0  0  0  0  0  0  0  0  0  0
    1.4115   -8.8228    2.3575 C   0  0  0  0  0  0  0  0  0  0  0  0
    1.0430   -8.6215    4.7388 C   0  0  0  0  0  0  0  0  0  0  0  0
    2.2251   -6.8468    3.5541 C   0  0  0  0  0  0  0  0  0  0  0  0
   -0.1814   -4.5565    1.0130 C   0  0  0  0  0  0  0  0  0  0  0  0
    0.5689   -5.7597    0.4668 C   0  0  0  0  0  0  0  0  0  0  0  0
    3.1325    2.7457    0.6611 C   0  0  0  0  0  0  0  0  0  0  0  0
    2.9068    1.3353    2.1473 C   0  0  0  0  0  0  0  0  0  0  0  0
    2.2903    1.4680    0.7504 C   0  0  0  0  0  0  0  0  0  0  0  0
    0.5367   -9.0724    6.0712 C   0  0  0  0  0  0  0  0  0  0  0  0
    2.2087  -10.6021    1.1021 C   0  0  0  0  0  0  0  0  0  0  0  0
    2.6303   -7.0192    1.0592 C   0  0  0  0  0  0  0  0  0  0  0  0
    2.6150    0.3612   -0.2508 C   0  0  2  0  0  0  0  0  0  0  0  0
    1.6953   -7.4106    4.7017 N   0  0  0  0  0  0  0  0  0  0  0  0
    1.9740   -5.7364    0.8606 N   0  0  0  0  0  0  0  0  0  0  0  0
    3.9312   -4.4847    1.0124 O   0  0  0  0  0  0  0  0  0  0  0  0
    2.8038   -5.7616    3.5514 O   0  0  0  0  0  0  0  0  0  0  0  0
    3.4683    2.6678    2.0677 O   0  0  0  0  0  0  0  0  0  0  0  0
    2.1942    0.7889   -1.5492 O   0  0  0  0  0  0  0  0  0  0  0  0
    1.1741   -9.6665    1.2970 O   0  0  0  0  0  0  0  0  0  0  0  0
   -1.8649   -1.9876    0.5845 Cl  0  0  0  0  0  0  0  0  0  0  0  0
    4.3731   -2.0169    0.0938 Cl  0  0  0  0  0  0  0  0  0  0  0  0
    0.0057    0.0058    0.0002 H   0  0  0  0  0  0  0  0  0  0  0  0
    0.3832  -10.2847    3.6088 H   0  0  0  0  0  0  0  0  0  0  0  0
   -0.2590   -4.6183    2.1054 H   0  0  0  0  0  0  0  0  0  0  0  0
   -1.1931   -4.5848    0.5974 H   0  0  0  0  0  0  0  0  0  0  0  0
    0.1046   -6.6795    0.8395 H   0  0  0  0  0  0  0  0  0  0  0  0
    0.5384   -5.7787   -0.6296 H   0  0  0  0  0  0  0  0  0  0  0  0
    4.0316    2.6941    0.0395 H   0  0  0  0  0  0  0  0  0  0  0  0
    2.5729    3.6558    0.4275 H   0  0  0  0  0  0  0  0  0  0  0  0
    2.1887    1.2463    2.9673 H   0  0  0  0  0  0  0  0  0  0  0  0
    3.6936    0.5833    2.2622 H   0  0  0  0  0  0  0  0  0  0  0  0
    1.2139    1.6779    0.7865 H   0  0  0  0  0  0  0  0  0  0  0  0
    1.3034   -9.6579    6.5771 H   0  0  0  0  0  0  0  0  0  0  0  0
   -0.3554   -9.6838    5.9386 H   0  0  0  0  0  0  0  0  0  0  0  0
    0.2833   -8.2057    6.6810 H   0  0  0  0  0  0  0  0  0  0  0  0
    1.9663  -11.2424    0.2504 H   0  0  0  0  0  0  0  0  0  0  0  0
    2.3284  -11.2075    2.0042 H   0  0  0  0  0  0  0  0  0  0  0  0
    3.1390  -10.0663    0.8992 H   0  0  0  0  0  0  0  0  0  0  0  0
    2.4510   -7.6749    0.2036 H   0  0  0  0  0  0  0  0  0  0  0  0
    3.7054   -6.8796    1.1968 H   0  0  0  0  0  0  0  0  0  0  0  0
    3.7096    0.2484   -0.2947 H   0  0  0  0  0  0  0  0  0  0  0  0
    1.7944   -6.8972    5.5730 H   0  0  0  0  0  0  0  0  0  0  0  0
    2.6519    1.6248   -1.7208 H   0  0  0  0  0  0  0  0  0  0  0  0
  1  4  1  0  0  0  0
  1  5  2  0  0  0  0
  2  3  2  0  0  0  0
  2  6  1  0  0  0  0
  2  8  1  0  0  0  0
  3  5  1  0  0  0  0
  3 13  1  0  0  0  0
  4  6  2  0  0  0  0
  4 21  1  0  0  0  0
  5 29  1  0  0  0  0
  6 30  1  0  0  0  0
  7 10  1  0  0  0  0
  7 11  2  0  0  0  0
  8 23  1  0  0  0  0
  8 24  2  0  0  0  0
  9 10  2  0  0  0  0
  9 12  1  0  0  0  0
  9 20  1  0  0  0  0
 10 28  1  0  0  0  0
 11 18  1  0  0  0  0
 11 22  1  0  0  0  0
 12 22  1  0  0  0  0
 12 25  2  0  0  0  0
 13 14  1  0  0  0  0
 14 23  1  0  0  0  0
 15 17  1  0  0  0  0
 15 26  1  0  0  0  0
 16 17  1  0  0  0  0
 16 26  1  0  0  0  0
 17 21  1  0  0  0  0
 19 28  1  0  0  0  0
 20 23  1  0  0  0  0
 21 27  1  0  0  0  0
  1 31  1  0  0  0  0
  7 32  1  0  0  0  0
 13 33  1  0  0  0  0
 13 34  1  0  0  0  0
 14 35  1  0  0  0  0
 14 36  1  0  0  0  0
 15 37  1  0  0  0  0
 15 38  1  0  0  0  0
 16 39  1  0  0  0  0
 16 40  1  0  0  0  0
 17 41  1  0  0  0  0
 18 42  1  0  0  0  0
 18 43  1  0  0  0  0
 18 44  1  0  0  0  0
 19 45  1  0  0  0  0
 19 46  1  0  0  0  0
 19 47  1  0  0  0  0
 20 48  1  0  0  0  0
 20 49  1  0  0  0  0
 21 50  1  0  0  0  0
 22 51  1  0  0  0  0
 27 52  1  0  0  0  0
M  END
> <Molecule Name>
cmp_25b

> <mmff94s_NoEstat>
93.01

> <Ki_nM>
1500

$$$$
