cmp_1
  -OEChem-07021816503D

 36 38  0     1  0  0  0  0  0999 V2000
    5.8080    1.1953   -0.6804 C   0  0  0  0  0  0  0  0  0  0  0  0
   10.2671    2.4045   -1.6241 C   0  0  0  0  0  0  0  0  0  0  0  0
    9.4399    1.6859   -0.7611 C   0  0  0  0  0  0  0  0  0  0  0  0
   10.1796    3.7957   -1.6769 C   0  0  0  0  0  0  0  0  0  0  0  0
    8.4373    3.7496   -0.0038 C   0  0  0  0  0  0  0  0  0  0  0  0
    8.5250    2.3584    0.0491 C   0  0  0  0  0  0  0  0  0  0  0  0
    9.2647    4.4682   -0.8668 C   0  0  0  0  0  0  0  0  0  0  0  0
    9.0008    1.4728    3.0652 C   0  0  0  0  0  0  0  0  0  0  0  0
   10.1212    1.5624    4.8277 C   0  0  0  0  0  0  0  0  0  0  0  0
   10.6364    3.7810    6.4748 C   0  0  0  0  0  0  0  0  0  0  0  0
   11.1260    2.5552    6.7556 C   0  0  0  0  0  0  0  0  0  0  0  0
    9.7990    3.9693    5.2582 C   0  0  0  0  0  0  0  0  0  0  0  0
   11.9734    2.3133    7.9697 C   0  0  0  0  0  0  0  0  0  0  0  0
    6.7269    0.5522    0.2721 C   0  0  0  0  0  0  0  0  0  0  0  0
    7.6251    1.5764    0.9862 C   0  0  1  0  0  0  0  0  0  0  0  0
    5.0820    1.7019   -1.4305 N   0  0  0  0  0  0  0  0  0  0  0  0
    9.7441    0.6985    3.9133 N   0  0  0  0  0  0  0  0  0  0  0  0
    8.8903    2.7634    3.3927 N   0  0  0  0  0  0  0  0  0  0  0  0
    9.6145    2.8040    4.5252 N   0  0  0  0  0  0  0  0  0  0  0  0
   10.8730    1.4581    5.9440 N   0  0  0  0  0  0  0  0  0  0  0  0
    8.4424    0.8832    1.9763 N   0  0  0  0  0  0  0  0  0  0  0  0
    9.2987    5.0191    4.8923 O   0  0  0  0  0  0  0  0  0  0  0  0
    9.1563    6.1844   -0.9333 Cl  0  0  0  0  0  0  0  0  0  0  0  0
   10.9793    1.8805   -2.2549 H   0  0  0  0  0  0  0  0  0  0  0  0
    9.5149    0.6022   -0.7265 H   0  0  0  0  0  0  0  0  0  0  0  0
   10.8305    4.3427   -2.3545 H   0  0  0  0  0  0  0  0  0  0  0  0
    7.7227    4.2693    0.6303 H   0  0  0  0  0  0  0  0  0  0  0  0
   10.8240    4.6471    7.0980 H   0  0  0  0  0  0  0  0  0  0  0  0
   11.3362    2.0435    8.8087 H   0  0  0  0  0  0  0  0  0  0  0  0
   12.5301    3.2165    8.2098 H   0  0  0  0  0  0  0  0  0  0  0  0
   12.6734    1.5053    7.7683 H   0  0  0  0  0  0  0  0  0  0  0  0
    6.1527   -0.0427    0.9925 H   0  0  0  0  0  0  0  0  0  0  0  0
    7.3558   -0.1611   -0.2763 H   0  0  0  0  0  0  0  0  0  0  0  0
    6.9818    2.2777    1.5335 H   0  0  0  0  0  0  0  0  0  0  0  0
   11.2816    0.5754    6.2331 H   0  0  0  0  0  0  0  0  0  0  0  0
    8.5878   -0.1205    1.8135 H   0  0  0  0  0  0  0  0  0  0  0  0
  1 14  1  0  0  0  0
  1 16  3  0  0  0  0
  2  3  1  0  0  0  0
  2  4  2  0  0  0  0
  3  6  2  0  0  0  0
  4  7  1  0  0  0  0
  5  6  1  0  0  0  0
  5  7  2  0  0  0  0
  6 15  1  0  0  0  0
  7 23  1  0  0  0  0
  8 17  1  0  0  0  0
  8 18  2  0  0  0  0
  8 21  1  0  0  0  0
  9 17  2  0  0  0  0
  9 19  1  0  0  0  0
  9 20  1  0  0  0  0
 10 11  2  0  0  0  0
 10 12  1  0  0  0  0
 11 13  1  0  0  0  0
 11 20  1  0  0  0  0
 12 19  1  0  0  0  0
 12 22  2  0  0  0  0
 14 15  1  0  0  0  0
 15 21  1  0  0  0  0
 18 19  1  0  0  0  0
  2 24  1  0  0  0  0
  3 25  1  0  0  0  0
  4 26  1  0  0  0  0
  5 27  1  0  0  0  0
 10 28  1  0  0  0  0
 13 29  1  0  0  0  0
 13 30  1  0  0  0  0
 13 31  1  0  0  0  0
 14 32  1  0  0  0  0
 14 33  1  0  0  0  0
 15 34  1  0  0  0  0
 20 35  1  0  0  0  0
 21 36  1  0  0  0  0
M  END
> <Molecule Name>
cmp_1

> <mmff94s_NoEstat>
46.46

> <Kd_nM>
9.0

$$$$
cmp_2
  -OEChem-07021816503D

 36 38  0     1  0  0  0  0  0999 V2000
   -1.8615    1.9542   -2.8807 C   0  0  0  0  0  0  0  0  0  0  0  0
    0.6804    1.0092   -6.7384 C   0  0  0  0  0  0  0  0  0  0  0  0
   -0.2298    1.8956   -6.1627 C   0  0  0  0  0  0  0  0  0  0  0  0
   -5.0853    5.0024  -10.1157 C   0  0  0  0  0  0  0  0  0  0  0  0
    0.2953   -0.3018   -7.0188 C   0  0  0  0  0  0  0  0  0  0  0  0
   -5.9546    4.3026  -10.9482 C   0  0  0  0  0  0  0  0  0  0  0  0
   -1.9104    0.1599   -6.1477 C   0  0  0  0  0  0  0  0  0  0  0  0
   -1.5252    1.4709   -5.8673 C   0  0  0  0  0  0  0  0  0  0  0  0
   -4.5760    4.2830   -9.0402 C   0  0  0  0  0  0  0  0  0  0  0  0
   -1.0001   -0.7264   -6.7235 C   0  0  0  0  0  0  0  0  0  0  0  0
   -6.2478    2.9737  -10.6606 C   0  0  0  0  0  0  0  0  0  0  0  0
   -4.9158    2.9535   -8.8167 C   0  0  0  0  0  0  0  0  0  0  0  0
   -3.5787    3.4721   -7.2442 C   0  0  0  0  0  0  0  0  0  0  0  0
   -7.1838    2.2422  -11.5687 C   0  0  0  0  0  0  0  0  0  0  0  0
   -2.0499    3.0077   -3.8904 C   0  0  0  0  0  0  0  0  0  0  0  0
   -2.5138    2.4347   -5.2403 C   0  0  1  0  0  0  0  0  0  0  0  0
   -1.7143    1.1241   -2.0834 N   0  0  0  0  0  0  0  0  0  0  0  0
   -5.7608    2.2591   -9.6187 N   0  0  0  0  0  0  0  0  0  0  0  0
   -4.2894    2.4630   -7.6987 N   0  0  0  0  0  0  0  0  0  0  0  0
   -3.7183    4.5917   -8.0197 N   0  0  0  0  0  0  0  0  0  0  0  0
   -2.7681    3.5397   -6.1650 N   0  0  0  0  0  0  0  0  0  0  0  0
   -1.4745   -2.3443   -7.0687 Cl  0  0  0  0  0  0  0  0  0  0  0  0
    1.6891    1.3402   -6.9681 H   0  0  0  0  0  0  0  0  0  0  0  0
    0.0790    2.9152   -5.9475 H   0  0  0  0  0  0  0  0  0  0  0  0
   -4.8249    6.0381  -10.2961 H   0  0  0  0  0  0  0  0  0  0  0  0
    1.0154   -0.9817   -7.4674 H   0  0  0  0  0  0  0  0  0  0  0  0
   -6.3927    4.7985  -11.8094 H   0  0  0  0  0  0  0  0  0  0  0  0
   -2.9217   -0.1661   -5.9160 H   0  0  0  0  0  0  0  0  0  0  0  0
   -6.6249    1.7566  -12.3761 H   0  0  0  0  0  0  0  0  0  0  0  0
   -7.7467    1.4767  -11.0216 H   0  0  0  0  0  0  0  0  0  0  0  0
   -7.9184    2.9252  -12.0114 H   0  0  0  0  0  0  0  0  0  0  0  0
   -2.7567    3.7566   -3.5131 H   0  0  0  0  0  0  0  0  0  0  0  0
   -1.0965    3.5340   -4.0286 H   0  0  0  0  0  0  0  0  0  0  0  0
   -3.4698    1.9175   -5.0859 H   0  0  0  0  0  0  0  0  0  0  0  0
   -3.2677    5.4836   -7.8645 H   0  0  0  0  0  0  0  0  0  0  0  0
   -2.2774    4.4190   -5.9458 H   0  0  0  0  0  0  0  0  0  0  0  0
  1 15  1  0  0  0  0
  1 17  3  0  0  0  0
  2  3  1  0  0  0  0
  2  5  2  0  0  0  0
  3  8  2  0  0  0  0
  4  6  2  0  0  0  0
  4  9  1  0  0  0  0
  5 10  1  0  0  0  0
  6 11  1  0  0  0  0
  7  8  1  0  0  0  0
  7 10  2  0  0  0  0
  8 16  1  0  0  0  0
  9 12  2  0  0  0  0
  9 20  1  0  0  0  0
 10 22  1  0  0  0  0
 11 14  1  0  0  0  0
 11 18  2  0  0  0  0
 12 18  1  0  0  0  0
 12 19  1  0  0  0  0
 13 19  2  0  0  0  0
 13 20  1  0  0  0  0
 13 21  1  0  0  0  0
 15 16  1  0  0  0  0
 16 21  1  0  0  0  0
  2 23  1  0  0  0  0
  3 24  1  0  0  0  0
  4 25  1  0  0  0  0
  5 26  1  0  0  0  0
  6 27  1  0  0  0  0
  7 28  1  0  0  0  0
 14 29  1  0  0  0  0
 14 30  1  0  0  0  0
 14 31  1  0  0  0  0
 15 32  1  0  0  0  0
 15 33  1  0  0  0  0
 16 34  1  0  0  0  0
 20 35  1  0  0  0  0
 21 36  1  0  0  0  0
M  END
> <Molecule Name>
cmp_2

> <mmff94s_NoEstat>
44.95

> <Kd_nM>
10

$$$$
cmp_3
  -OEChem-07021816503D

 35 37  0     1  0  0  0  0  0999 V2000
   10.3447   -0.6137    2.4913 C   0  0  0  0  0  0  0  0  0  0  0  0
    9.0914   -0.0814    2.1891 C   0  0  0  0  0  0  0  0  0  0  0  0
   11.4922   -0.0645    1.9191 C   0  0  0  0  0  0  0  0  0  0  0  0
   10.1329    1.5494    0.7424 C   0  0  0  0  0  0  0  0  0  0  0  0
    8.9855    1.0001    1.3146 C   0  0  0  0  0  0  0  0  0  0  0  0
   11.3863    1.0171    1.0447 C   0  0  0  0  0  0  0  0  0  0  0  0
    7.2924    3.3576    2.7016 C   0  0  0  0  0  0  0  0  0  0  0  0
    7.1421    4.9443    4.0541 C   0  0  0  0  0  0  0  0  0  0  0  0
    8.5931    7.3510    4.1120 C   0  0  0  0  0  0  0  0  0  0  0  0
    7.6456    7.0672    5.0299 C   0  0  0  0  0  0  0  0  0  0  0  0
    8.8826    6.3640    3.0354 C   0  0  0  0  0  0  0  0  0  0  0  0
    7.3156    8.0288    6.1331 C   0  0  0  0  0  0  0  0  0  0  0  0
    6.6981    0.5549    0.3305 C   0  0  0  0  0  0  0  0  0  0  0  0
    7.6251    1.5764    0.9862 C   0  0  1  0  0  0  0  0  0  0  0  0
    6.6110    3.7674    3.8146 N   0  0  0  0  0  0  0  0  0  0  0  0
    8.2137    4.2037    2.2320 N   0  0  0  0  0  0  0  0  0  0  0  0
    8.1044    5.2159    3.1107 N   0  0  0  0  0  0  0  0  0  0  0  0
    6.9277    5.8796    5.0035 N   0  0  0  0  0  0  0  0  0  0  0  0
    6.9873    2.1460    2.1685 N   0  0  0  0  0  0  0  0  0  0  0  0
    9.7097    6.4969    2.1497 O   0  0  0  0  0  0  0  0  0  0  0  0
   12.8022    1.6936    0.3382 Cl  0  0  0  0  0  0  0  0  0  0  0  0
   10.4268   -1.4560    3.1722 H   0  0  0  0  0  0  0  0  0  0  0  0
    8.2027   -0.5158    2.6394 H   0  0  0  0  0  0  0  0  0  0  0  0
   12.4625   -0.4898    2.1636 H   0  0  0  0  0  0  0  0  0  0  0  0
   10.0451    2.3930    0.0616 H   0  0  0  0  0  0  0  0  0  0  0  0
    9.1616    8.2732    4.1182 H   0  0  0  0  0  0  0  0  0  0  0  0
    6.5269    8.7014    5.8040 H   0  0  0  0  0  0  0  0  0  0  0  0
    8.2022    8.6043    6.3904 H   0  0  0  0  0  0  0  0  0  0  0  0
    6.9823    7.4759    7.0086 H   0  0  0  0  0  0  0  0  0  0  0  0
    6.5368   -0.3087    0.9849 H   0  0  0  0  0  0  0  0  0  0  0  0
    5.7221    1.0046    0.1154 H   0  0  0  0  0  0  0  0  0  0  0  0
    7.0998    0.1879   -0.6207 H   0  0  0  0  0  0  0  0  0  0  0  0
    7.7483    2.4134    0.2878 H   0  0  0  0  0  0  0  0  0  0  0  0
    6.2345    5.7516    5.7335 H   0  0  0  0  0  0  0  0  0  0  0  0
    6.2595    1.5687    2.6067 H   0  0  0  0  0  0  0  0  0  0  0  0
  1  2  1  0  0  0  0
  1  3  2  0  0  0  0
  2  5  2  0  0  0  0
  3  6  1  0  0  0  0
  4  5  1  0  0  0  0
  4  6  2  0  0  0  0
  5 14  1  0  0  0  0
  6 21  1  0  0  0  0
  7 15  1  0  0  0  0
  7 16  2  0  0  0  0
  7 19  1  0  0  0  0
  8 15  2  0  0  0  0
  8 17  1  0  0  0  0
  8 18  1  0  0  0  0
  9 10  2  0  0  0  0
  9 11  1  0  0  0  0
 10 12  1  0  0  0  0
 10 18  1  0  0  0  0
 11 17  1  0  0  0  0
 11 20  2  0  0  0  0
 13 14  1  0  0  0  0
 14 19  1  0  0  0  0
 16 17  1  0  0  0  0
  1 22  1  0  0  0  0
  2 23  1  0  0  0  0
  3 24  1  0  0  0  0
  4 25  1  0  0  0  0
  9 26  1  0  0  0  0
 12 27  1  0  0  0  0
 12 28  1  0  0  0  0
 12 29  1  0  0  0  0
 13 30  1  0  0  0  0
 13 31  1  0  0  0  0
 13 32  1  0  0  0  0
 14 33  1  0  0  0  0
 18 34  1  0  0  0  0
 19 35  1  0  0  0  0
M  END
> <Molecule Name>
cmp_3

> <mmff94s_NoEstat>
44.11

> <Kd_nM>
174

$$$$
cmp_4
  -OEChem-07021816503D

 53 56  0     1  0  0  0  0  0999 V2000
    7.0218    3.5219    2.4268 C   0  0  0  0  0  0  0  0  0  0  0  0
    8.8120    3.7107   -1.9322 C   0  0  0  0  0  0  0  0  0  0  0  0
   14.2848    0.9297    1.4843 C   0  0  0  0  0  0  0  0  0  0  0  0
   13.1505   -0.2644   -0.2834 C   0  0  0  0  0  0  0  0  0  0  0  0
    7.9844    2.9910   -1.0704 C   0  0  0  0  0  0  0  0  0  0  0  0
   10.1801    3.7978   -1.6746 C   0  0  0  0  0  0  0  0  0  0  0  0
   13.6182    2.1000    1.1215 C   0  0  0  0  0  0  0  0  0  0  0  0
   12.4838    0.9059   -0.6461 C   0  0  0  0  0  0  0  0  0  0  0  0
    9.8931    2.4455    0.3068 C   0  0  0  0  0  0  0  0  0  0  0  0
   14.0510   -0.2525    0.7818 C   0  0  0  0  0  0  0  0  0  0  0  0
    8.5250    2.3584    0.0491 C   0  0  0  0  0  0  0  0  0  0  0  0
   12.7177    2.0881    0.0564 C   0  0  0  0  0  0  0  0  0  0  0  0
   10.7206    3.1653   -0.5551 C   0  0  0  0  0  0  0  0  0  0  0  0
    7.6869   -0.7077   -0.0161 C   0  0  0  0  0  0  0  0  0  0  0  0
    9.2934   -2.0451   -0.0306 C   0  0  0  0  0  0  0  0  0  0  0  0
    9.4250   -4.6259   -1.1362 C   0  0  0  0  0  0  0  0  0  0  0  0
   10.4771   -4.0670   -0.5025 C   0  0  0  0  0  0  0  0  0  0  0  0
    8.1551   -3.8578   -1.2556 C   0  0  0  0  0  0  0  0  0  0  0  0
   14.7459   -1.4728    1.1599 C   0  0  0  0  0  0  0  0  0  0  0  0
   11.7786   -4.7989   -0.3571 C   0  0  0  0  0  0  0  0  0  0  0  0
   15.6154   -3.5336    0.3295 C   0  0  0  0  0  0  0  0  0  0  0  0
    6.4975    2.4174    1.6082 C   0  0  0  0  0  0  0  0  0  0  0  0
    7.6251    1.5764    0.9862 C   0  0  1  0  0  0  0  0  0  0  0  0
    7.4347    4.3922    3.0738 N   0  0  0  0  0  0  0  0  0  0  0  0
    8.9845   -0.8419    0.3955 N   0  0  0  0  0  0  0  0  0  0  0  0
    7.1677   -1.7499   -0.6716 N   0  0  0  0  0  0  0  0  0  0  0  0
    8.2109   -2.5985   -0.6721 N   0  0  0  0  0  0  0  0  0  0  0  0
   10.4148   -2.7928    0.0442 N   0  0  0  0  0  0  0  0  0  0  0  0
    7.0374    0.4513    0.2667 N   0  0  0  0  0  0  0  0  0  0  0  0
    7.1357   -4.2455   -1.8004 O   0  0  0  0  0  0  0  0  0  0  0  0
   15.1166   -1.7397    2.3108 O   0  0  0  0  0  0  0  0  0  0  0  0
   12.0558    3.2498   -0.3041 O   0  0  0  0  0  0  0  0  0  0  0  0
   14.9402   -2.2953    0.0839 O   0  0  0  0  0  0  0  0  0  0  0  0
    8.3912    4.2028   -2.8041 H   0  0  0  0  0  0  0  0  0  0  0  0
   14.9841    0.9509    2.3162 H   0  0  0  0  0  0  0  0  0  0  0  0
   12.9612   -1.1805   -0.8370 H   0  0  0  0  0  0  0  0  0  0  0  0
    6.9197    2.9291   -1.2791 H   0  0  0  0  0  0  0  0  0  0  0  0
   10.8193    4.3600   -2.3497 H   0  0  0  0  0  0  0  0  0  0  0  0
   13.8047    3.0177    1.6725 H   0  0  0  0  0  0  0  0  0  0  0  0
   11.7837    0.8907   -1.4769 H   0  0  0  0  0  0  0  0  0  0  0  0
   10.3173    1.9536    1.1790 H   0  0  0  0  0  0  0  0  0  0  0  0
    9.4576   -5.6187   -1.5688 H   0  0  0  0  0  0  0  0  0  0  0  0
   12.4163   -4.5775   -1.2098 H   0  0  0  0  0  0  0  0  0  0  0  0
   11.5901   -5.8693   -0.3106 H   0  0  0  0  0  0  0  0  0  0  0  0
   12.2720   -4.4831    0.5595 H   0  0  0  0  0  0  0  0  0  0  0  0
   15.7055   -4.0921   -0.6054 H   0  0  0  0  0  0  0  0  0  0  0  0
   15.0526   -4.1173    1.0623 H   0  0  0  0  0  0  0  0  0  0  0  0
   16.6127   -3.3227    0.7229 H   0  0  0  0  0  0  0  0  0  0  0  0
    5.8273    1.7962    2.2146 H   0  0  0  0  0  0  0  0  0  0  0  0
    5.8766    2.8399    0.8076 H   0  0  0  0  0  0  0  0  0  0  0  0
    8.2321    1.1572    1.7991 H   0  0  0  0  0  0  0  0  0  0  0  0
   11.2544   -2.4534    0.5020 H   0  0  0  0  0  0  0  0  0  0  0  0
    6.0625    0.5718   -0.0337 H   0  0  0  0  0  0  0  0  0  0  0  0
  1 22  1  0  0  0  0
  1 24  3  0  0  0  0
  2  5  2  0  0  0  0
  2  6  1  0  0  0  0
  3  7  1  0  0  0  0
  3 10  2  0  0  0  0
  4  8  2  0  0  0  0
  4 10  1  0  0  0  0
  5 11  1  0  0  0  0
  6 13  2  0  0  0  0
  7 12  2  0  0  0  0
  8 12  1  0  0  0  0
  9 11  2  0  0  0  0
  9 13  1  0  0  0  0
 10 19  1  0  0  0  0
 11 23  1  0  0  0  0
 12 32  1  0  0  0  0
 13 32  1  0  0  0  0
 14 25  1  0  0  0  0
 14 26  2  0  0  0  0
 14 29  1  0  0  0  0
 15 25  2  0  0  0  0
 15 27  1  0  0  0  0
 15 28  1  0  0  0  0
 16 17  2  0  0  0  0
 16 18  1  0  0  0  0
 17 20  1  0  0  0  0
 17 28  1  0  0  0  0
 18 27  1  0  0  0  0
 18 30  2  0  0  0  0
 19 31  2  0  0  0  0
 19 33  1  0  0  0  0
 21 33  1  0  0  0  0
 22 23  1  0  0  0  0
 23 29  1  0  0  0  0
 26 27  1  0  0  0  0
  2 34  1  0  0  0  0
  3 35  1  0  0  0  0
  4 36  1  0  0  0  0
  5 37  1  0  0  0  0
  6 38  1  0  0  0  0
  7 39  1  0  0  0  0
  8 40  1  0  0  0  0
  9 41  1  0  0  0  0
 16 42  1  0  0  0  0
 20 43  1  0  0  0  0
 20 44  1  0  0  0  0
 20 45  1  0  0  0  0
 21 46  1  0  0  0  0
 21 47  1  0  0  0  0
 21 48  1  0  0  0  0
 22 49  1  0  0  0  0
 22 50  1  0  0  0  0
 23 51  1  0  0  0  0
 28 52  1  0  0  0  0
 29 53  1  0  0  0  0
M  END
> <Molecule Name>
cmp_4

> <mmff94s_NoEstat>
90.16

> <Kd_nM>
5.6

$$$$
cmp_5
  -OEChem-07021816503D

 58 61  0     1  0  0  0  0  0999 V2000
    3.4248   -4.7512   -5.2182 C   0  0  0  0  0  0  0  0  0  0  0  0
    3.8793   -4.4781   -0.4996 C   0  0  0  0  0  0  0  0  0  0  0  0
    3.6824   -5.3373   -1.5806 C   0  0  0  0  0  0  0  0  0  0  0  0
    2.9074   -3.5316   -0.1749 C   0  0  0  0  0  0  0  0  0  0  0  0
    1.5419   -4.3034   -2.0124 C   0  0  0  0  0  0  0  0  0  0  0  0
    2.5137   -5.2500   -2.3371 C   0  0  0  0  0  0  0  0  0  0  0  0
    1.7388   -3.4443   -0.9313 C   0  0  0  0  0  0  0  0  0  0  0  0
    1.1155   -8.1108   -2.4730 C   0  0  0  0  0  0  0  0  0  0  0  0
   -0.0403   -9.6188   -1.6014 C   0  0  0  0  0  0  0  0  0  0  0  0
   -2.7044   -9.5027   -0.7125 C   0  0  0  0  0  0  0  0  0  0  0  0
   -1.9684  -10.6295   -0.6148 C   0  0  0  0  0  0  0  0  0  0  0  0
   -2.0923   -8.2826   -1.3072 C   0  0  0  0  0  0  0  0  0  0  0  0
   -4.3566   -1.7238    0.8648 C   0  0  0  0  0  0  0  0  0  0  0  0
   -1.5432   -2.4574   -1.2591 C   0  0  0  0  0  0  0  0  0  0  0  0
   -0.8406   -2.5951    1.1534 C   0  0  0  0  0  0  0  0  0  0  0  0
   -2.9575   -2.8526   -0.8488 C   0  0  0  0  0  0  0  0  0  0  0  0
   -2.2666   -2.9871    1.5277 C   0  0  0  0  0  0  0  0  0  0  0  0
   -0.5070   -3.0114   -0.2795 C   0  0  0  0  0  0  0  0  0  0  0  0
   -2.5393  -11.8852   -0.0249 C   0  0  0  0  0  0  0  0  0  0  0  0
   -5.5860   -0.6947    2.6219 C   0  0  0  0  0  0  0  0  0  0  0  0
    3.3898   -6.0828   -4.5932 C   0  0  0  0  0  0  0  0  0  0  0  0
    2.3036   -6.1683   -3.4932 C   0  0  1  0  0  0  0  0  0  0  0  0
    3.4518   -3.7018   -5.7126 N   0  0  0  0  0  0  0  0  0  0  0  0
    1.1658   -9.4205   -2.0815 N   0  0  0  0  0  0  0  0  0  0  0  0
   -0.0446   -7.4805   -2.2679 N   0  0  0  0  0  0  0  0  0  0  0  0
   -0.7746   -8.4616   -1.7085 N   0  0  0  0  0  0  0  0  0  0  0  0
   -0.6528  -10.6895   -1.0530 N   0  0  0  0  0  0  0  0  0  0  0  0
   -3.2236   -2.4752    0.5399 N   0  0  0  0  0  0  0  0  0  0  0  0
    2.2412   -7.5536   -3.0370 N   0  0  0  0  0  0  0  0  0  0  0  0
   -2.6452   -7.2058   -1.4524 O   0  0  0  0  0  0  0  0  0  0  0  0
   -5.1878   -1.3343    0.0464 O   0  0  0  0  0  0  0  0  0  0  0  0
    0.7840   -2.5150   -0.6120 O   0  0  0  0  0  0  0  0  0  0  0  0
   -4.4499   -1.4613    2.2060 O   0  0  0  0  0  0  0  0  0  0  0  0
    4.7889   -4.5466    0.0896 H   0  0  0  0  0  0  0  0  0  0  0  0
    4.4454   -6.0712   -1.8262 H   0  0  0  0  0  0  0  0  0  0  0  0
    3.0668   -2.8654    0.6683 H   0  0  0  0  0  0  0  0  0  0  0  0
    0.6299   -4.2328   -2.6006 H   0  0  0  0  0  0  0  0  0  0  0  0
   -3.7322   -9.4396   -0.3760 H   0  0  0  0  0  0  0  0  0  0  0  0
   -1.3275   -2.8125   -2.2737 H   0  0  0  0  0  0  0  0  0  0  0  0
   -1.4587   -1.3632   -1.2981 H   0  0  0  0  0  0  0  0  0  0  0  0
   -0.7140   -1.5091    1.2552 H   0  0  0  0  0  0  0  0  0  0  0  0
   -0.1272   -3.0481    1.8519 H   0  0  0  0  0  0  0  0  0  0  0  0
   -3.6814   -2.3783   -1.5194 H   0  0  0  0  0  0  0  0  0  0  0  0
   -3.0973   -3.9371   -0.9282 H   0  0  0  0  0  0  0  0  0  0  0  0
   -2.3763   -4.0776    1.5557 H   0  0  0  0  0  0  0  0  0  0  0  0
   -2.4931   -2.6092    2.5286 H   0  0  0  0  0  0  0  0  0  0  0  0
   -0.4761   -4.1050   -0.3501 H   0  0  0  0  0  0  0  0  0  0  0  0
   -2.9985  -12.4792   -0.8117 H   0  0  0  0  0  0  0  0  0  0  0  0
   -3.2872  -11.6282    0.7220 H   0  0  0  0  0  0  0  0  0  0  0  0
   -1.7444  -12.4578    0.4480 H   0  0  0  0  0  0  0  0  0  0  0  0
   -5.5525   -0.5502    3.7045 H   0  0  0  0  0  0  0  0  0  0  0  0
   -6.5030   -1.2192    2.3418 H   0  0  0  0  0  0  0  0  0  0  0  0
   -5.5592    0.2784    2.1257 H   0  0  0  0  0  0  0  0  0  0  0  0
    3.2245   -6.8461   -5.3630 H   0  0  0  0  0  0  0  0  0  0  0  0
    4.3783   -6.2940   -4.1650 H   0  0  0  0  0  0  0  0  0  0  0  0
    1.3301   -5.9605   -3.9758 H   0  0  0  0  0  0  0  0  0  0  0  0
   -0.1765  -11.5784   -0.9400 H   0  0  0  0  0  0  0  0  0  0  0  0
    3.0697   -8.1140   -3.1491 H   0  0  0  0  0  0  0  0  0  0  0  0
  1 21  1  0  0  0  0
  1 23  3  0  0  0  0
  2  3  2  0  0  0  0
  2  4  1  0  0  0  0
  3  6  1  0  0  0  0
  4  7  2  0  0  0  0
  5  6  2  0  0  0  0
  5  7  1  0  0  0  0
  6 22  1  0  0  0  0
  7 32  1  0  0  0  0
  8 24  1  0  0  0  0
  8 25  2  0  0  0  0
  8 29  1  0  0  0  0
  9 24  2  0  0  0  0
  9 26  1  0  0  0  0
  9 27  1  0  0  0  0
 10 11  2  0  0  0  0
 10 12  1  0  0  0  0
 11 19  1  0  0  0  0
 11 27  1  0  0  0  0
 12 26  1  0  0  0  0
 12 30  2  0  0  0  0
 13 28  1  0  0  0  0
 13 31  2  0  0  0  0
 13 33  1  0  0  0  0
 14 16  1  0  0  0  0
 14 18  1  0  0  0  0
 15 17  1  0  0  0  0
 15 18  1  0  0  0  0
 16 28  1  0  0  0  0
 17 28  1  0  0  0  0
 18 32  1  0  0  0  0
 20 33  1  0  0  0  0
 21 22  1  0  0  0  0
 22 29  1  0  0  0  0
 25 26  1  0  0  0  0
  2 34  1  0  0  0  0
  3 35  1  0  0  0  0
  4 36  1  0  0  0  0
  5 37  1  0  0  0  0
 10 38  1  0  0  0  0
 14 39  1  0  0  0  0
 14 40  1  0  0  0  0
 15 41  1  0  0  0  0
 15 42  1  0  0  0  0
 16 43  1  0  0  0  0
 16 44  1  0  0  0  0
 17 45  1  0  0  0  0
 17 46  1  0  0  0  0
 18 47  1  0  0  0  0
 19 48  1  0  0  0  0
 19 49  1  0  0  0  0
 19 50  1  0  0  0  0
 20 51  1  0  0  0  0
 20 52  1  0  0  0  0
 20 53  1  0  0  0  0
 21 54  1  0  0  0  0
 21 55  1  0  0  0  0
 22 56  1  0  0  0  0
 27 57  1  0  0  0  0
 29 58  1  0  0  0  0
M  END
> <Molecule Name>
cmp_5

> <mmff94s_NoEstat>
75.78

> <Kd_nM>
11

$$$$
cmp_6
  -OEChem-07021816503D

 58 61  0     1  0  0  0  0  0999 V2000
    3.4248   -4.7512   -5.2182 C   0  0  0  0  0  0  0  0  0  0  0  0
    3.8793   -4.4781   -0.4996 C   0  0  0  0  0  0  0  0  0  0  0  0
    3.6824   -5.3373   -1.5806 C   0  0  0  0  0  0  0  0  0  0  0  0
   -0.5814  -10.9085   -1.0065 C   0  0  0  0  0  0  0  0  0  0  0  0
    2.9074   -3.5316   -0.1749 C   0  0  0  0  0  0  0  0  0  0  0  0
   -1.9026  -10.8213   -0.5760 C   0  0  0  0  0  0  0  0  0  0  0  0
    1.5419   -4.3034   -2.0124 C   0  0  0  0  0  0  0  0  0  0  0  0
    2.5137   -5.2500   -2.3371 C   0  0  0  0  0  0  0  0  0  0  0  0
   -0.0516   -9.7457   -1.5549 C   0  0  0  0  0  0  0  0  0  0  0  0
    1.7388   -3.4443   -0.9313 C   0  0  0  0  0  0  0  0  0  0  0  0
   -2.5847   -9.6174   -0.7172 C   0  0  0  0  0  0  0  0  0  0  0  0
   -0.7966   -8.5769   -1.6631 C   0  0  0  0  0  0  0  0  0  0  0  0
    1.1155   -8.1108   -2.4730 C   0  0  0  0  0  0  0  0  0  0  0  0
   -4.3566   -1.7238    0.8648 C   0  0  0  0  0  0  0  0  0  0  0  0
   -1.5432   -2.4574   -1.2591 C   0  0  0  0  0  0  0  0  0  0  0  0
   -0.8406   -2.5951    1.1534 C   0  0  0  0  0  0  0  0  0  0  0  0
   -2.9575   -2.8526   -0.8488 C   0  0  0  0  0  0  0  0  0  0  0  0
   -2.2666   -2.9871    1.5277 C   0  0  0  0  0  0  0  0  0  0  0  0
   -0.5070   -3.0114   -0.2795 C   0  0  0  0  0  0  0  0  0  0  0  0
   -4.0026   -9.5472   -0.2477 C   0  0  0  0  0  0  0  0  0  0  0  0
   -5.5860   -0.6947    2.6219 C   0  0  0  0  0  0  0  0  0  0  0  0
    3.3898   -6.0828   -4.5932 C   0  0  0  0  0  0  0  0  0  0  0  0
    2.3036   -6.1683   -3.4932 C   0  0  1  0  0  0  0  0  0  0  0  0
    3.4518   -3.7018   -5.7126 N   0  0  0  0  0  0  0  0  0  0  0  0
   -2.0841   -8.4769   -1.2482 N   0  0  0  0  0  0  0  0  0  0  0  0
   -0.0596   -7.5703   -2.2346 N   0  0  0  0  0  0  0  0  0  0  0  0
    1.1695   -9.4212   -2.0802 N   0  0  0  0  0  0  0  0  0  0  0  0
   -3.2236   -2.4752    0.5399 N   0  0  0  0  0  0  0  0  0  0  0  0
    2.2412   -7.5536   -3.0370 N   0  0  0  0  0  0  0  0  0  0  0  0
   -5.1878   -1.3343    0.0464 O   0  0  0  0  0  0  0  0  0  0  0  0
    0.7840   -2.5150   -0.6120 O   0  0  0  0  0  0  0  0  0  0  0  0
   -4.4499   -1.4613    2.2060 O   0  0  0  0  0  0  0  0  0  0  0  0
    4.7889   -4.5466    0.0896 H   0  0  0  0  0  0  0  0  0  0  0  0
    4.4454   -6.0712   -1.8262 H   0  0  0  0  0  0  0  0  0  0  0  0
   -0.0070  -11.8225   -0.9188 H   0  0  0  0  0  0  0  0  0  0  0  0
    3.0668   -2.8654    0.6683 H   0  0  0  0  0  0  0  0  0  0  0  0
   -2.3849  -11.6894   -0.1364 H   0  0  0  0  0  0  0  0  0  0  0  0
    0.6299   -4.2328   -2.6006 H   0  0  0  0  0  0  0  0  0  0  0  0
   -1.3275   -2.8125   -2.2737 H   0  0  0  0  0  0  0  0  0  0  0  0
   -1.4587   -1.3632   -1.2981 H   0  0  0  0  0  0  0  0  0  0  0  0
   -0.7140   -1.5091    1.2552 H   0  0  0  0  0  0  0  0  0  0  0  0
   -0.1272   -3.0481    1.8519 H   0  0  0  0  0  0  0  0  0  0  0  0
   -3.6814   -2.3783   -1.5194 H   0  0  0  0  0  0  0  0  0  0  0  0
   -3.0973   -3.9371   -0.9282 H   0  0  0  0  0  0  0  0  0  0  0  0
   -2.3763   -4.0776    1.5557 H   0  0  0  0  0  0  0  0  0  0  0  0
   -2.4931   -2.6092    2.5286 H   0  0  0  0  0  0  0  0  0  0  0  0
   -0.4761   -4.1050   -0.3501 H   0  0  0  0  0  0  0  0  0  0  0  0
   -4.0382   -9.2372    0.8025 H   0  0  0  0  0  0  0  0  0  0  0  0
   -4.5810   -8.8322   -0.8445 H   0  0  0  0  0  0  0  0  0  0  0  0
   -4.4986  -10.5203   -0.3436 H   0  0  0  0  0  0  0  0  0  0  0  0
   -5.5525   -0.5502    3.7045 H   0  0  0  0  0  0  0  0  0  0  0  0
   -6.5030   -1.2192    2.3418 H   0  0  0  0  0  0  0  0  0  0  0  0
   -5.5592    0.2784    2.1257 H   0  0  0  0  0  0  0  0  0  0  0  0
    3.2245   -6.8461   -5.3630 H   0  0  0  0  0  0  0  0  0  0  0  0
    4.3783   -6.2940   -4.1650 H   0  0  0  0  0  0  0  0  0  0  0  0
    1.3301   -5.9605   -3.9758 H   0  0  0  0  0  0  0  0  0  0  0  0
    1.9685  -10.0355   -2.1637 H   0  0  0  0  0  0  0  0  0  0  0  0
    3.0697   -8.1140   -3.1491 H   0  0  0  0  0  0  0  0  0  0  0  0
  1 22  1  0  0  0  0
  1 24  3  0  0  0  0
  2  3  2  0  0  0  0
  2  5  1  0  0  0  0
  3  8  1  0  0  0  0
  4  6  1  0  0  0  0
  4  9  2  0  0  0  0
  5 10  2  0  0  0  0
  6 11  2  0  0  0  0
  7  8  2  0  0  0  0
  7 10  1  0  0  0  0
  8 23  1  0  0  0  0
  9 12  1  0  0  0  0
  9 27  1  0  0  0  0
 10 31  1  0  0  0  0
 11 20  1  0  0  0  0
 11 25  1  0  0  0  0
 12 25  2  0  0  0  0
 12 26  1  0  0  0  0
 13 26  2  0  0  0  0
 13 27  1  0  0  0  0
 13 29  1  0  0  0  0
 14 28  1  0  0  0  0
 14 30  2  0  0  0  0
 14 32  1  0  0  0  0
 15 17  1  0  0  0  0
 15 19  1  0  0  0  0
 16 18  1  0  0  0  0
 16 19  1  0  0  0  0
 17 28  1  0  0  0  0
 18 28  1  0  0  0  0
 19 31  1  0  0  0  0
 21 32  1  0  0  0  0
 22 23  1  0  0  0  0
 23 29  1  0  0  0  0
  2 33  1  0  0  0  0
  3 34  1  0  0  0  0
  4 35  1  0  0  0  0
  5 36  1  0  0  0  0
  6 37  1  0  0  0  0
  7 38  1  0  0  0  0
 15 39  1  0  0  0  0
 15 40  1  0  0  0  0
 16 41  1  0  0  0  0
 16 42  1  0  0  0  0
 17 43  1  0  0  0  0
 17 44  1  0  0  0  0
 18 45  1  0  0  0  0
 18 46  1  0  0  0  0
 19 47  1  0  0  0  0
 20 48  1  0  0  0  0
 20 49  1  0  0  0  0
 20 50  1  0  0  0  0
 21 51  1  0  0  0  0
 21 52  1  0  0  0  0
 21 53  1  0  0  0  0
 22 54  1  0  0  0  0
 22 55  1  0  0  0  0
 23 56  1  0  0  0  0
 27 57  1  0  0  0  0
 29 58  1  0  0  0  0
M  END
> <Molecule Name>
cmp_6

> <mmff94s_NoEstat>
74.40

> <Kd_nM>
1.9

$$$$
cmp_7
  -OEChem-07021816503D

 60 63  0     1  0  0  0  0  0999 V2000
   -2.4000   -6.0217   -0.4071 C   0  0  0  0  0  0  0  0  0  0  0  0
   -1.8975   -3.7630   -4.5539 C   0  0  0  0  0  0  0  0  0  0  0  0
   -1.4294   -2.5149   -4.1432 C   0  0  0  0  0  0  0  0  0  0  0  0
   -1.5647   -4.9064   -3.8275 C   0  0  0  0  0  0  0  0  0  0  0  0
    4.8042   -7.8331   -4.4723 C   0  0  0  0  0  0  0  0  0  0  0  0
    5.9924   -7.1291   -4.2962 C   0  0  0  0  0  0  0  0  0  0  0  0
   -0.2957   -3.5534   -2.2795 C   0  0  0  0  0  0  0  0  0  0  0  0
   -0.6285   -2.4101   -3.0060 C   0  0  0  0  0  0  0  0  0  0  0  0
   -0.7637   -4.8016   -2.6903 C   0  0  0  0  0  0  0  0  0  0  0  0
    3.6919   -7.3025   -3.8279 C   0  0  0  0  0  0  0  0  0  0  0  0
    5.9908   -5.9791   -3.5137 C   0  0  0  0  0  0  0  0  0  0  0  0
    3.7679   -6.1456   -3.0606 C   0  0  0  0  0  0  0  0  0  0  0  0
    1.7336   -6.7630   -2.9610 C   0  0  0  0  0  0  0  0  0  0  0  0
    5.0326    0.9490   -2.4852 C   0  0  0  0  0  0  0  0  0  0  0  0
    1.4731    0.7859   -3.1822 C   0  0  0  0  0  0  0  0  0  0  0  0
    2.3629   -1.4628   -2.4729 C   0  0  0  0  0  0  0  0  0  0  0  0
    2.8492    1.1267   -3.7507 C   0  0  0  0  0  0  0  0  0  0  0  0
    3.7222   -1.0819   -3.0540 C   0  0  0  0  0  0  0  0  0  0  0  0
    1.2228   -0.7300   -3.1965 C   0  0  0  0  0  0  0  0  0  0  0  0
    7.2785   -5.2394   -3.3389 C   0  0  0  0  0  0  0  0  0  0  0  0
    6.1948    2.9816   -2.0664 C   0  0  0  0  0  0  0  0  0  0  0  0
   -1.6182   -6.8183   -1.3660 C   0  0  0  0  0  0  0  0  0  0  0  0
   -0.1255   -1.0636   -2.5628 C   0  0  0  0  0  0  0  0  0  0  0  0
   -0.4074   -6.0243   -1.9139 C   0  0  1  0  0  0  0  0  0  0  0  0
   -3.0159   -5.3947    0.3503 N   0  0  0  0  0  0  0  0  0  0  0  0
    4.9178   -5.4494   -2.8802 N   0  0  0  0  0  0  0  0  0  0  0  0
    2.5449   -5.8224   -2.5287 N   0  0  0  0  0  0  0  0  0  0  0  0
    2.3787   -7.6784   -3.7486 N   0  0  0  0  0  0  0  0  0  0  0  0
    3.8992    0.3695   -3.0622 N   0  0  0  0  0  0  0  0  0  0  0  0
    0.3861   -6.9339   -2.7348 N   0  0  0  0  0  0  0  0  0  0  0  0
    5.9154    0.3176   -1.9070 O   0  0  0  0  0  0  0  0  0  0  0  0
    5.0624    2.3106   -2.6311 O   0  0  0  0  0  0  0  0  0  0  0  0
   -2.5212   -3.8445   -5.4394 H   0  0  0  0  0  0  0  0  0  0  0  0
   -1.6944   -1.6295   -4.7152 H   0  0  0  0  0  0  0  0  0  0  0  0
   -1.9331   -5.8748   -4.1553 H   0  0  0  0  0  0  0  0  0  0  0  0
    4.7525   -8.7336   -5.0716 H   0  0  0  0  0  0  0  0  0  0  0  0
    6.9038   -7.4827   -4.7691 H   0  0  0  0  0  0  0  0  0  0  0  0
    0.3279   -3.4722   -1.3923 H   0  0  0  0  0  0  0  0  0  0  0  0
    1.4073    1.1596   -2.1521 H   0  0  0  0  0  0  0  0  0  0  0  0
    0.6998    1.3022   -3.7627 H   0  0  0  0  0  0  0  0  0  0  0  0
    2.2234   -2.5474   -2.5484 H   0  0  0  0  0  0  0  0  0  0  0  0
    2.3441   -1.2085   -1.4051 H   0  0  0  0  0  0  0  0  0  0  0  0
    2.9046    0.8713   -4.8155 H   0  0  0  0  0  0  0  0  0  0  0  0
    3.0174    2.2038   -3.6634 H   0  0  0  0  0  0  0  0  0  0  0  0
    4.5172   -1.5612   -2.4735 H   0  0  0  0  0  0  0  0  0  0  0  0
    3.8150   -1.4318   -4.0889 H   0  0  0  0  0  0  0  0  0  0  0  0
    1.2003   -1.0688   -4.2409 H   0  0  0  0  0  0  0  0  0  0  0  0
    7.3920   -4.4866   -4.1267 H   0  0  0  0  0  0  0  0  0  0  0  0
    7.3159   -4.7370   -2.3652 H   0  0  0  0  0  0  0  0  0  0  0  0
    8.1349   -5.9229   -3.3803 H   0  0  0  0  0  0  0  0  0  0  0  0
    6.1085    4.0563   -2.2440 H   0  0  0  0  0  0  0  0  0  0  0  0
    7.1112    2.5985   -2.5225 H   0  0  0  0  0  0  0  0  0  0  0  0
    6.2195    2.7933   -0.9904 H   0  0  0  0  0  0  0  0  0  0  0  0
   -1.2890   -7.7491   -0.8887 H   0  0  0  0  0  0  0  0  0  0  0  0
   -2.2776   -7.1180   -2.1909 H   0  0  0  0  0  0  0  0  0  0  0  0
   -0.8531   -0.2886   -2.8246 H   0  0  0  0  0  0  0  0  0  0  0  0
   -0.0315   -1.0407   -1.4722 H   0  0  0  0  0  0  0  0  0  0  0  0
    0.2290   -5.7573   -1.0495 H   0  0  0  0  0  0  0  0  0  0  0  0
    1.9583   -8.4849   -4.1907 H   0  0  0  0  0  0  0  0  0  0  0  0
   -0.0907   -7.7189   -3.1464 H   0  0  0  0  0  0  0  0  0  0  0  0
  1 22  1  0  0  0  0
  1 25  3  0  0  0  0
  2  3  2  0  0  0  0
  2  4  1  0  0  0  0
  3  8  1  0  0  0  0
  4  9  2  0  0  0  0
  5  6  1  0  0  0  0
  5 10  2  0  0  0  0
  6 11  2  0  0  0  0
  7  8  2  0  0  0  0
  7  9  1  0  0  0  0
  8 23  1  0  0  0  0
  9 24  1  0  0  0  0
 10 12  1  0  0  0  0
 10 28  1  0  0  0  0
 11 20  1  0  0  0  0
 11 26  1  0  0  0  0
 12 26  2  0  0  0  0
 12 27  1  0  0  0  0
 13 27  2  0  0  0  0
 13 28  1  0  0  0  0
 13 30  1  0  0  0  0
 14 29  1  0  0  0  0
 14 31  2  0  0  0  0
 14 32  1  0  0  0  0
 15 17  1  0  0  0  0
 15 19  1  0  0  0  0
 16 18  1  0  0  0  0
 16 19  1  0  0  0  0
 17 29  1  0  0  0  0
 18 29  1  0  0  0  0
 19 23  1  0  0  0  0
 21 32  1  0  0  0  0
 22 24  1  0  0  0  0
 24 30  1  0  0  0  0
  2 33  1  0  0  0  0
  3 34  1  0  0  0  0
  4 35  1  0  0  0  0
  5 36  1  0  0  0  0
  6 37  1  0  0  0  0
  7 38  1  0  0  0  0
 15 39  1  0  0  0  0
 15 40  1  0  0  0  0
 16 41  1  0  0  0  0
 16 42  1  0  0  0  0
 17 43  1  0  0  0  0
 17 44  1  0  0  0  0
 18 45  1  0  0  0  0
 18 46  1  0  0  0  0
 19 47  1  0  0  0  0
 20 48  1  0  0  0  0
 20 49  1  0  0  0  0
 20 50  1  0  0  0  0
 21 51  1  0  0  0  0
 21 52  1  0  0  0  0
 21 53  1  0  0  0  0
 22 54  1  0  0  0  0
 22 55  1  0  0  0  0
 23 56  1  0  0  0  0
 23 57  1  0  0  0  0
 24 58  1  0  0  0  0
 28 59  1  0  0  0  0
 30 60  1  0  0  0  0
M  END
> <Molecule Name>
cmp_7

> <mmff94s_NoEstat>
64.91

> <Kd_nM>
0.075

$$$$
cmp_8
  -OEChem-07021816503D

 58 61  0     1  0  0  0  0  0999 V2000
    4.8697   -2.6294    1.3270 C   0  0  0  0  0  0  0  0  0  0  0  0
    5.7695   -0.4150   -2.7757 C   0  0  0  0  0  0  0  0  0  0  0  0
    5.7594   -0.2877   -1.3868 C   0  0  0  0  0  0  0  0  0  0  0  0
    3.8518    5.7708    1.6463 C   0  0  0  0  0  0  0  0  0  0  0  0
    4.5727   -0.6009   -3.4678 C   0  0  0  0  0  0  0  0  0  0  0  0
    2.6484    6.4173    1.3770 C   0  0  0  0  0  0  0  0  0  0  0  0
    3.3558   -0.5324   -1.3817 C   0  0  0  0  0  0  0  0  0  0  0  0
    4.5526   -0.3464   -0.6897 C   0  0  0  0  0  0  0  0  0  0  0  0
    3.8638    4.4015    1.4048 C   0  0  0  0  0  0  0  0  0  0  0  0
    3.3659   -0.6597   -2.7708 C   0  0  0  0  0  0  0  0  0  0  0  0
    1.5720    5.6770    0.8995 C   0  0  0  0  0  0  0  0  0  0  0  0
    2.7455    3.7285    0.9259 C   0  0  0  0  0  0  0  0  0  0  0  0
    4.2543    2.2434    1.1438 C   0  0  0  0  0  0  0  0  0  0  0  0
   -1.5893    3.9550   -4.0881 C   0  0  0  0  0  0  0  0  0  0  0  0
   -0.5278    0.4637   -3.3591 C   0  0  0  0  0  0  0  0  0  0  0  0
    1.4901    1.8104   -3.9970 C   0  0  0  0  0  0  0  0  0  0  0  0
   -1.2665    1.7555   -3.0181 C   0  0  0  0  0  0  0  0  0  0  0  0
    0.7314    3.0915   -3.6544 C   0  0  0  0  0  0  0  0  0  0  0  0
    0.9806    0.6319   -3.1648 C   0  0  0  0  0  0  0  0  0  0  0  0
    0.2897    6.3926    0.6171 C   0  0  0  0  0  0  0  0  0  0  0  0
   -1.7718    6.0713   -5.1586 C   0  0  0  0  0  0  0  0  0  0  0  0
    5.3855   -1.2691    1.5477 C   0  0  0  0  0  0  0  0  0  0  0  0
    4.5427   -0.2104    0.7954 C   0  0  1  0  0  0  0  0  0  0  0  0
    4.4625   -3.7021    1.1547 N   0  0  0  0  0  0  0  0  0  0  0  0
    1.5670    4.3446    0.6589 N   0  0  0  0  0  0  0  0  0  0  0  0
    3.0023    2.3897    0.7684 N   0  0  0  0  0  0  0  0  0  0  0  0
    4.8169    3.4284    1.5358 N   0  0  0  0  0  0  0  0  0  0  0  0
   -0.7226    2.9090   -3.7363 N   0  0  0  0  0  0  0  0  0  0  0  0
    5.0317    1.1078    1.1882 N   0  0  0  0  0  0  0  0  0  0  0  0
   -2.7922    3.9732   -3.8326 O   0  0  0  0  0  0  0  0  0  0  0  0
   -0.9531    4.9662   -4.7589 O   0  0  0  0  0  0  0  0  0  0  0  0
    1.8520   -0.8952   -3.6471 S   0  0  0  0  0  0  0  0  0  0  0  0
    6.7092   -0.3693   -3.3183 H   0  0  0  0  0  0  0  0  0  0  0  0
    6.6967   -0.1430   -0.8561 H   0  0  0  0  0  0  0  0  0  0  0  0
    4.7191    6.3017    2.0192 H   0  0  0  0  0  0  0  0  0  0  0  0
    4.6008   -0.6981   -4.5503 H   0  0  0  0  0  0  0  0  0  0  0  0
    2.5626    7.4873    1.5412 H   0  0  0  0  0  0  0  0  0  0  0  0
    2.4197   -0.5770   -0.8291 H   0  0  0  0  0  0  0  0  0  0  0  0
   -0.9129   -0.3469   -2.7286 H   0  0  0  0  0  0  0  0  0  0  0  0
   -0.7482    0.1990   -4.4021 H   0  0  0  0  0  0  0  0  0  0  0  0
    1.3585    1.6020   -5.0673 H   0  0  0  0  0  0  0  0  0  0  0  0
    2.5613    1.9724   -3.8259 H   0  0  0  0  0  0  0  0  0  0  0  0
   -2.3318    1.6390   -3.2443 H   0  0  0  0  0  0  0  0  0  0  0  0
   -1.1834    1.9733   -1.9464 H   0  0  0  0  0  0  0  0  0  0  0  0
    0.9586    3.4104   -2.6301 H   0  0  0  0  0  0  0  0  0  0  0  0
    1.0599    3.8915   -4.3245 H   0  0  0  0  0  0  0  0  0  0  0  0
    1.1963    0.8124   -2.1053 H   0  0  0  0  0  0  0  0  0  0  0  0
    0.2747    6.7465   -0.4196 H   0  0  0  0  0  0  0  0  0  0  0  0
   -0.5726    5.7345    0.7760 H   0  0  0  0  0  0  0  0  0  0  0  0
    0.1633    7.2536    1.2840 H   0  0  0  0  0  0  0  0  0  0  0  0
   -1.1588    6.8097   -5.6812 H   0  0  0  0  0  0  0  0  0  0  0  0
   -2.2320    6.5230   -4.2762 H   0  0  0  0  0  0  0  0  0  0  0  0
   -2.5540    5.7096   -5.8302 H   0  0  0  0  0  0  0  0  0  0  0  0
    5.4092   -1.0548    2.6229 H   0  0  0  0  0  0  0  0  0  0  0  0
    6.4289   -1.2317    1.2086 H   0  0  0  0  0  0  0  0  0  0  0  0
    3.5079   -0.2805    1.1799 H   0  0  0  0  0  0  0  0  0  0  0  0
    5.7652    3.5583    1.8620 H   0  0  0  0  0  0  0  0  0  0  0  0
    5.9848    1.1707    1.5054 H   0  0  0  0  0  0  0  0  0  0  0  0
  1 22  1  0  0  0  0
  1 24  3  0  0  0  0
  2  3  2  0  0  0  0
  2  5  1  0  0  0  0
  3  8  1  0  0  0  0
  4  6  1  0  0  0  0
  4  9  2  0  0  0  0
  5 10  2  0  0  0  0
  6 11  2  0  0  0  0
  7  8  2  0  0  0  0
  7 10  1  0  0  0  0
  8 23  1  0  0  0  0
  9 12  1  0  0  0  0
  9 27  1  0  0  0  0
 10 32  1  0  0  0  0
 11 20  1  0  0  0  0
 11 25  1  0  0  0  0
 12 25  2  0  0  0  0
 12 26  1  0  0  0  0
 13 26  2  0  0  0  0
 13 27  1  0  0  0  0
 13 29  1  0  0  0  0
 14 28  1  0  0  0  0
 14 30  2  0  0  0  0
 14 31  1  0  0  0  0
 15 17  1  0  0  0  0
 15 19  1  0  0  0  0
 16 18  1  0  0  0  0
 16 19  1  0  0  0  0
 17 28  1  0  0  0  0
 18 28  1  0  0  0  0
 19 32  1  0  0  0  0
 21 31  1  0  0  0  0
 22 23  1  0  0  0  0
 23 29  1  0  0  0  0
  2 33  1  0  0  0  0
  3 34  1  0  0  0  0
  4 35  1  0  0  0  0
  5 36  1  0  0  0  0
  6 37  1  0  0  0  0
  7 38  1  0  0  0  0
 15 39  1  0  0  0  0
 15 40  1  0  0  0  0
 16 41  1  0  0  0  0
 16 42  1  0  0  0  0
 17 43  1  0  0  0  0
 17 44  1  0  0  0  0
 18 45  1  0  0  0  0
 18 46  1  0  0  0  0
 19 47  1  0  0  0  0
 20 48  1  0  0  0  0
 20 49  1  0  0  0  0
 20 50  1  0  0  0  0
 21 51  1  0  0  0  0
 21 52  1  0  0  0  0
 21 53  1  0  0  0  0
 22 54  1  0  0  0  0
 22 55  1  0  0  0  0
 23 56  1  0  0  0  0
 27 57  1  0  0  0  0
 29 58  1  0  0  0  0
M  END
> <Molecule Name>
cmp_8

> <mmff94s_NoEstat>
67.98

> <Kd_nM>
0.28

$$$$
cmp_9
  -OEChem-07021816503D

 58 61  0     1  0  0  0  0  0999 V2000
   -6.7435    5.2688    0.2637 C   0  0  0  0  0  0  0  0  0  0  0  0
   -3.6210    3.0572   -2.6146 C   0  0  0  0  0  0  0  0  0  0  0  0
   -3.4785    1.8485   -1.9333 C   0  0  0  0  0  0  0  0  0  0  0  0
   -3.8728    4.2319   -1.9057 C   0  0  0  0  0  0  0  0  0  0  0  0
    1.5995    6.7050    1.3228 C   0  0  0  0  0  0  0  0  0  0  0  0
    2.5360    6.7843    0.2955 C   0  0  0  0  0  0  0  0  0  0  0  0
   -3.8399    2.9890    0.1657 C   0  0  0  0  0  0  0  0  0  0  0  0
   -3.5880    1.8143   -0.5431 C   0  0  0  0  0  0  0  0  0  0  0  0
   -3.9823    4.1978   -0.5156 C   0  0  0  0  0  0  0  0  0  0  0  0
    0.2991    6.4114    0.9272 C   0  0  0  0  0  0  0  0  0  0  0  0
    2.1246    6.5718   -1.0161 C   0  0  0  0  0  0  0  0  0  0  0  0
   -0.0371    6.2111   -0.4068 C   0  0  0  0  0  0  0  0  0  0  0  0
   -1.8503    5.9677    0.6806 C   0  0  0  0  0  0  0  0  0  0  0  0
   -2.0302    0.8363    2.1864 C   0  0  0  0  0  0  0  0  0  0  0  0
    1.3775    1.7848    1.9171 C   0  0  0  0  0  0  0  0  0  0  0  0
   -0.6563    0.7096    2.8339 C   0  0  0  0  0  0  0  0  0  0  0  0
   -0.9760    0.2946   -0.0197 C   0  0  0  0  0  0  0  0  0  0  0  0
    0.2611   -0.1405    0.7380 C   0  0  0  0  0  0  0  0  0  0  0  0
    3.1478    6.6618   -2.1028 C   0  0  0  0  0  0  0  0  0  0  0  0
    3.3375    2.6816    0.9115 C   0  0  0  0  0  0  0  0  0  0  0  0
   -5.5421    5.4282    1.0981 C   0  0  0  0  0  0  0  0  0  0  0  0
   -3.4331    0.5131    0.1896 C   0  0  0  0  0  0  0  0  0  0  0  0
   -4.2523    5.4538    0.2422 C   0  0  1  0  0  0  0  0  0  0  0  0
   -7.6914    5.1448   -0.3938 N   0  0  0  0  0  0  0  0  0  0  0  0
    0.8639    6.2850   -1.4179 N   0  0  0  0  0  0  0  0  0  0  0  0
   -1.3745    5.9364   -0.5451 N   0  0  0  0  0  0  0  0  0  0  0  0
   -0.8793    6.2498    1.6036 N   0  0  0  0  0  0  0  0  0  0  0  0
   -2.1428    0.4137    0.8567 N   0  0  0  0  0  0  0  0  0  0  0  0
    0.4230    0.7649    1.8658 N   0  0  0  0  0  0  0  0  0  0  0  0
   -3.1353    5.7613    1.1303 N   0  0  0  0  0  0  0  0  0  0  0  0
   -2.9915    1.1687    2.8858 O   0  0  0  0  0  0  0  0  0  0  0  0
    1.3848    2.6866    2.7531 O   0  0  0  0  0  0  0  0  0  0  0  0
    2.3192    1.6745    0.9282 O   0  0  0  0  0  0  0  0  0  0  0  0
   -3.5356    3.0837   -3.6971 H   0  0  0  0  0  0  0  0  0  0  0  0
   -3.2819    0.9383   -2.4940 H   0  0  0  0  0  0  0  0  0  0  0  0
   -3.9832    5.1691   -2.4449 H   0  0  0  0  0  0  0  0  0  0  0  0
    1.8688    6.8620    2.3600 H   0  0  0  0  0  0  0  0  0  0  0  0
    3.5727    7.0099    0.5272 H   0  0  0  0  0  0  0  0  0  0  0  0
   -3.9244    2.9632    1.2496 H   0  0  0  0  0  0  0  0  0  0  0  0
   -0.5485    1.5151    3.5416 H   0  0  0  0  0  0  0  0  0  0  0  0
   -0.6070   -0.2485    3.3279 H   0  0  0  0  0  0  0  0  0  0  0  0
   -0.8220    1.2747   -0.4886 H   0  0  0  0  0  0  0  0  0  0  0  0
   -1.1995   -0.4351   -0.8068 H   0  0  0  0  0  0  0  0  0  0  0  0
    0.1493   -1.1476    1.1365 H   0  0  0  0  0  0  0  0  0  0  0  0
    1.1321   -0.1121    0.0891 H   0  0  0  0  0  0  0  0  0  0  0  0
    3.6024    5.6803   -2.2763 H   0  0  0  0  0  0  0  0  0  0  0  0
    2.6985    7.0112   -3.0398 H   0  0  0  0  0  0  0  0  0  0  0  0
    3.9392    7.3742   -1.8415 H   0  0  0  0  0  0  0  0  0  0  0  0
    4.0263    2.4906    0.0850 H   0  0  0  0  0  0  0  0  0  0  0  0
    3.8786    2.6697    1.8610 H   0  0  0  0  0  0  0  0  0  0  0  0
    2.8687    3.6588    0.7737 H   0  0  0  0  0  0  0  0  0  0  0  0
   -5.6292    6.3425    1.6975 H   0  0  0  0  0  0  0  0  0  0  0  0
   -5.5024    4.5986    1.8159 H   0  0  0  0  0  0  0  0  0  0  0  0
   -4.2148    0.4021    0.9489 H   0  0  0  0  0  0  0  0  0  0  0  0
   -3.5221   -0.3367   -0.4954 H   0  0  0  0  0  0  0  0  0  0  0  0
   -4.3360    6.3102   -0.4529 H   0  0  0  0  0  0  0  0  0  0  0  0
   -1.0116    6.3240    2.6034 H   0  0  0  0  0  0  0  0  0  0  0  0
   -3.3324    5.8228    2.1154 H   0  0  0  0  0  0  0  0  0  0  0  0
  1 21  1  0  0  0  0
  1 24  3  0  0  0  0
  2  3  2  0  0  0  0
  2  4  1  0  0  0  0
  3  8  1  0  0  0  0
  4  9  2  0  0  0  0
  5  6  1  0  0  0  0
  5 10  2  0  0  0  0
  6 11  2  0  0  0  0
  7  8  2  0  0  0  0
  7  9  1  0  0  0  0
  8 22  1  0  0  0  0
  9 23  1  0  0  0  0
 10 12  1  0  0  0  0
 10 27  1  0  0  0  0
 11 19  1  0  0  0  0
 11 25  1  0  0  0  0
 12 25  2  0  0  0  0
 12 26  1  0  0  0  0
 13 26  2  0  0  0  0
 13 27  1  0  0  0  0
 13 30  1  0  0  0  0
 14 16  1  0  0  0  0
 14 28  1  0  0  0  0
 14 31  2  0  0  0  0
 15 29  1  0  0  0  0
 15 32  2  0  0  0  0
 15 33  1  0  0  0  0
 16 29  1  0  0  0  0
 17 18  1  0  0  0  0
 17 28  1  0  0  0  0
 18 29  1  0  0  0  0
 20 33  1  0  0  0  0
 21 23  1  0  0  0  0
 22 28  1  0  0  0  0
 23 30  1  0  0  0  0
  2 34  1  0  0  0  0
  3 35  1  0  0  0  0
  4 36  1  0  0  0  0
  5 37  1  0  0  0  0
  6 38  1  0  0  0  0
  7 39  1  0  0  0  0
 16 40  1  0  0  0  0
 16 41  1  0  0  0  0
 17 42  1  0  0  0  0
 17 43  1  0  0  0  0
 18 44  1  0  0  0  0
 18 45  1  0  0  0  0
 19 46  1  0  0  0  0
 19 47  1  0  0  0  0
 19 48  1  0  0  0  0
 20 49  1  0  0  0  0
 20 50  1  0  0  0  0
 20 51  1  0  0  0  0
 21 52  1  0  0  0  0
 21 53  1  0  0  0  0
 22 54  1  0  0  0  0
 22 55  1  0  0  0  0
 23 56  1  0  0  0  0
 27 57  1  0  0  0  0
 30 58  1  0  0  0  0
M  END
> <Molecule Name>
cmp_9

> <mmff94s_NoEstat>
76.19

> <Kd_nM>
1.1

$$$$
cmp_10
  -OEChem-07021816503D

 55 58  0     1  0  0  0  0  0999 V2000
    7.5823   -1.6587   -4.6674 C   0  0  0  0  0  0  0  0  0  0  0  0
    5.4279   -2.2013   -0.4709 C   0  0  0  0  0  0  0  0  0  0  0  0
    5.9959   -2.8656   -1.5579 C   0  0  0  0  0  0  0  0  0  0  0  0
    3.2168   -8.8778   -3.9407 C   0  0  0  0  0  0  0  0  0  0  0  0
    4.2714   -1.4409   -0.6449 C   0  0  0  0  0  0  0  0  0  0  0  0
    1.8783   -9.0144   -4.2989 C   0  0  0  0  0  0  0  0  0  0  0  0
    4.2512   -2.0091   -2.9930 C   0  0  0  0  0  0  0  0  0  0  0  0
    5.4076   -2.7695   -2.8190 C   0  0  0  0  0  0  0  0  0  0  0  0
    3.7234   -7.5840   -3.9970 C   0  0  0  0  0  0  0  0  0  0  0  0
    3.6831   -1.3448   -1.9059 C   0  0  0  0  0  0  0  0  0  0  0  0
    1.1581   -7.8862   -4.6771 C   0  0  0  0  0  0  0  0  0  0  0  0
    2.9403   -6.5030   -4.3856 C   0  0  0  0  0  0  0  0  0  0  0  0
    4.8631   -5.6924   -3.9669 C   0  0  0  0  0  0  0  0  0  0  0  0
   -0.6435    1.3448   -4.1801 C   0  0  0  0  0  0  0  0  0  0  0  0
    0.2329   -1.1151   -1.5813 C   0  0  0  0  0  0  0  0  0  0  0  0
   -0.3538    0.2369   -1.9662 C   0  0  0  0  0  0  0  0  0  0  0  0
    0.8904   -0.6383   -3.8383 C   0  0  0  0  0  0  0  0  0  0  0  0
    1.3960   -1.2861   -2.5548 C   0  0  1  0  0  0  0  0  0  0  0  0
   -0.2779   -8.0570   -5.0575 C   0  0  0  0  0  0  0  0  0  0  0  0
   -0.7680    2.2355   -6.3785 C   0  0  0  0  0  0  0  0  0  0  0  0
    7.4779   -3.0776   -4.2921 C   0  0  0  0  0  0  0  0  0  0  0  0
    6.0153   -3.4793   -3.9812 C   0  0  1  0  0  0  0  0  0  0  0  0
    7.6651   -0.5402   -4.9650 N   0  0  0  0  0  0  0  0  0  0  0  0
    1.6356   -6.6206   -4.7370 N   0  0  0  0  0  0  0  0  0  0  0  0
    3.6606   -5.3352   -4.3621 N   0  0  0  0  0  0  0  0  0  0  0  0
    4.9504   -7.0387   -3.7338 N   0  0  0  0  0  0  0  0  0  0  0  0
   -0.0644    0.3704   -3.3850 N   0  0  0  0  0  0  0  0  0  0  0  0
    5.9872   -4.9230   -3.7663 N   0  0  0  0  0  0  0  0  0  0  0  0
   -1.4469    2.1806   -3.7725 O   0  0  0  0  0  0  0  0  0  0  0  0
    2.5474   -0.5988   -2.0766 O   0  0  0  0  0  0  0  0  0  0  0  0
   -0.2177    1.2664   -5.4791 O   0  0  0  0  0  0  0  0  0  0  0  0
    5.8857   -2.2766    0.5109 H   0  0  0  0  0  0  0  0  0  0  0  0
    6.8972   -3.4553   -1.4127 H   0  0  0  0  0  0  0  0  0  0  0  0
    3.8208   -9.7245   -3.6388 H   0  0  0  0  0  0  0  0  0  0  0  0
    3.8339   -0.9259    0.2058 H   0  0  0  0  0  0  0  0  0  0  0  0
    1.4123   -9.9951   -4.2794 H   0  0  0  0  0  0  0  0  0  0  0  0
    3.7905   -1.9321   -3.9751 H   0  0  0  0  0  0  0  0  0  0  0  0
    0.5331   -1.1391   -0.5298 H   0  0  0  0  0  0  0  0  0  0  0  0
   -0.5124   -1.8998   -1.7568 H   0  0  0  0  0  0  0  0  0  0  0  0
   -1.4297    0.3063   -1.7805 H   0  0  0  0  0  0  0  0  0  0  0  0
    0.1500    1.0583   -1.4449 H   0  0  0  0  0  0  0  0  0  0  0  0
    1.6767   -0.1667   -4.4350 H   0  0  0  0  0  0  0  0  0  0  0  0
    0.3351   -1.3523   -4.4556 H   0  0  0  0  0  0  0  0  0  0  0  0
    1.6699   -2.3444   -2.6995 H   0  0  0  0  0  0  0  0  0  0  0  0
   -0.9181   -7.9491   -4.1751 H   0  0  0  0  0  0  0  0  0  0  0  0
   -0.5798   -7.3125   -5.8035 H   0  0  0  0  0  0  0  0  0  0  0  0
   -0.4539   -9.0445   -5.5004 H   0  0  0  0  0  0  0  0  0  0  0  0
   -0.3595    2.0779   -7.3797 H   0  0  0  0  0  0  0  0  0  0  0  0
   -0.5221    3.2408   -6.0272 H   0  0  0  0  0  0  0  0  0  0  0  0
   -1.8537    2.1173   -6.4076 H   0  0  0  0  0  0  0  0  0  0  0  0
    7.8904   -3.7015   -5.0941 H   0  0  0  0  0  0  0  0  0  0  0  0
    8.1128   -3.2546   -3.4142 H   0  0  0  0  0  0  0  0  0  0  0  0
    5.4222   -3.2942   -4.8964 H   0  0  0  0  0  0  0  0  0  0  0  0
    5.7737   -7.5371   -3.4229 H   0  0  0  0  0  0  0  0  0  0  0  0
    6.8396   -5.3602   -3.4580 H   0  0  0  0  0  0  0  0  0  0  0  0
  1 21  1  0  0  0  0
  1 23  3  0  0  0  0
  2  3  2  0  0  0  0
  2  5  1  0  0  0  0
  3  8  1  0  0  0  0
  4  6  1  0  0  0  0
  4  9  2  0  0  0  0
  5 10  2  0  0  0  0
  6 11  2  0  0  0  0
  7  8  2  0  0  0  0
  7 10  1  0  0  0  0
  8 22  1  0  0  0  0
  9 12  1  0  0  0  0
  9 26  1  0  0  0  0
 10 30  1  0  0  0  0
 11 19  1  0  0  0  0
 11 24  1  0  0  0  0
 12 24  2  0  0  0  0
 12 25  1  0  0  0  0
 13 25  2  0  0  0  0
 13 26  1  0  0  0  0
 13 28  1  0  0  0  0
 14 27  1  0  0  0  0
 14 29  2  0  0  0  0
 14 31  1  0  0  0  0
 15 16  1  0  0  0  0
 15 18  1  0  0  0  0
 16 27  1  0  0  0  0
 17 18  1  0  0  0  0
 17 27  1  0  0  0  0
 18 30  1  0  0  0  0
 20 31  1  0  0  0  0
 21 22  1  0  0  0  0
 22 28  1  0  0  0  0
  2 32  1  0  0  0  0
  3 33  1  0  0  0  0
  4 34  1  0  0  0  0
  5 35  1  0  0  0  0
  6 36  1  0  0  0  0
  7 37  1  0  0  0  0
 15 38  1  0  0  0  0
 15 39  1  0  0  0  0
 16 40  1  0  0  0  0
 16 41  1  0  0  0  0
 17 42  1  0  0  0  0
 17 43  1  0  0  0  0
 18 44  1  0  0  0  0
 19 45  1  0  0  0  0
 19 46  1  0  0  0  0
 19 47  1  0  0  0  0
 20 48  1  0  0  0  0
 20 49  1  0  0  0  0
 20 50  1  0  0  0  0
 21 51  1  0  0  0  0
 21 52  1  0  0  0  0
 22 53  1  0  0  0  0
 26 54  1  0  0  0  0
 28 55  1  0  0  0  0
M  END
> <Molecule Name>
cmp_10

> <mmff94s_NoEstat>
76.65

> <Kd_nM>
7.7

$$$$
cmp_11
  -OEChem-07021816503D

 62 65  0     1  0  0  0  0  0999 V2000
    4.1205   -0.8708    5.3460 C   0  0  0  0  0  0  0  0  0  0  0  0
    5.1386    1.8824    1.6132 C   0  0  0  0  0  0  0  0  0  0  0  0
    3.8755    2.0877    1.0582 C   0  0  0  0  0  0  0  0  0  0  0  0
    5.2779    1.7298    2.9927 C   0  0  0  0  0  0  0  0  0  0  0  0
    5.0561    7.3255    7.2567 C   0  0  0  0  0  0  0  0  0  0  0  0
    4.0111    8.2456    7.2599 C   0  0  0  0  0  0  0  0  0  0  0  0
    2.8909    1.9880    3.2623 C   0  0  0  0  0  0  0  0  0  0  0  0
    2.7517    2.1405    1.8828 C   0  0  0  0  0  0  0  0  0  0  0  0
    4.1541    1.7826    3.8172 C   0  0  0  0  0  0  0  0  0  0  0  0
    4.7378    6.0585    6.7800 C   0  0  0  0  0  0  0  0  0  0  0  0
    2.7583    7.8518    6.8014 C   0  0  0  0  0  0  0  0  0  0  0  0
    3.4595    5.7382    6.3371 C   0  0  0  0  0  0  0  0  0  0  0  0
    4.6072    3.9619    6.0982 C   0  0  0  0  0  0  0  0  0  0  0  0
   -0.3384    3.8450    0.5781 C   0  0  0  0  0  0  0  0  0  0  0  0
    2.6031    7.6495    2.1212 C   0  0  0  0  0  0  0  0  0  0  0  0
    2.0326    4.5882    0.2807 C   0  0  0  0  0  0  0  0  0  0  0  0
    0.9957    4.4821    2.5967 C   0  0  0  0  0  0  0  0  0  0  0  0
    1.8074    6.1011    0.2858 C   0  0  0  0  0  0  0  0  0  0  0  0
    0.7977    5.9970    2.5389 C   0  0  0  0  0  0  0  0  0  0  0  0
    1.0554    3.8483    1.2019 C   0  0  0  0  0  0  0  0  0  0  0  0
    1.6512    8.8569    6.8140 C   0  0  0  0  0  0  0  0  0  0  0  0
    4.3185    9.1952    1.5506 C   0  0  0  0  0  0  0  0  0  0  0  0
    4.9469    0.2831    5.7340 C   0  0  0  0  0  0  0  0  0  0  0  0
    1.3926    2.3600    1.2847 C   0  0  0  0  0  0  0  0  0  0  0  0
    4.3033    1.6201    5.2924 C   0  0  1  0  0  0  0  0  0  0  0  0
    3.4685   -1.7811    5.0417 N   0  0  0  0  0  0  0  0  0  0  0  0
    2.4320    6.6236    6.3342 N   0  0  0  0  0  0  0  0  0  0  0  0
    3.3929    4.4337    5.9167 N   0  0  0  0  0  0  0  0  0  0  0  0
    5.4543    4.9043    6.6164 N   0  0  0  0  0  0  0  0  0  0  0  0
    1.7832    6.6177    1.6566 N   0  0  0  0  0  0  0  0  0  0  0  0
    5.1090    2.7051    5.8441 N   0  0  0  0  0  0  0  0  0  0  0  0
   -0.6289    4.3555   -0.4935 O   0  0  0  0  0  0  0  0  0  0  0  0
    2.5846    8.0847    3.2712 O   0  0  0  0  0  0  0  0  0  0  0  0
   -1.2197    3.1972    1.3787 O   0  5  0  0  0  0  0  0  0  0  0  0
    3.4426    8.1339    1.1533 O   0  0  0  0  0  0  0  0  0  0  0  0
    6.0137    1.8411    0.9710 H   0  0  0  0  0  0  0  0  0  0  0  0
    3.7766    2.2050   -0.0178 H   0  0  0  0  0  0  0  0  0  0  0  0
    6.2660    1.5709    3.4164 H   0  0  0  0  0  0  0  0  0  0  0  0
    6.0496    7.5822    7.6030 H   0  0  0  0  0  0  0  0  0  0  0  0
    4.1835    9.2561    7.6182 H   0  0  0  0  0  0  0  0  0  0  0  0
    2.0151    2.0281    3.9056 H   0  0  0  0  0  0  0  0  0  0  0  0
    1.9616    4.2190   -0.7499 H   0  0  0  0  0  0  0  0  0  0  0  0
    3.0603    4.3939    0.6162 H   0  0  0  0  0  0  0  0  0  0  0  0
    1.9373    4.2792    3.1247 H   0  0  0  0  0  0  0  0  0  0  0  0
    0.1936    4.0384    3.1996 H   0  0  0  0  0  0  0  0  0  0  0  0
    2.5934    6.5814   -0.3039 H   0  0  0  0  0  0  0  0  0  0  0  0
    0.8497    6.3599   -0.1806 H   0  0  0  0  0  0  0  0  0  0  0  0
   -0.1974    6.2515    2.1559 H   0  0  0  0  0  0  0  0  0  0  0  0
    0.8719    6.4131    3.5490 H   0  0  0  0  0  0  0  0  0  0  0  0
    1.6272    9.4047    5.8657 H   0  0  0  0  0  0  0  0  0  0  0  0
    0.6796    8.3717    6.9640 H   0  0  0  0  0  0  0  0  0  0  0  0
    1.7803    9.5758    7.6318 H   0  0  0  0  0  0  0  0  0  0  0  0
    4.9357    9.4967    0.7007 H   0  0  0  0  0  0  0  0  0  0  0  0
    4.9531    8.8564    2.3734 H   0  0  0  0  0  0  0  0  0  0  0  0
    3.7186   10.0460    1.8822 H   0  0  0  0  0  0  0  0  0  0  0  0
    5.1110    0.2699    6.8182 H   0  0  0  0  0  0  0  0  0  0  0  0
    5.9387    0.1724    5.2766 H   0  0  0  0  0  0  0  0  0  0  0  0
    1.3448    1.9279    0.2829 H   0  0  0  0  0  0  0  0  0  0  0  0
    0.6298    1.8546    1.8808 H   0  0  0  0  0  0  0  0  0  0  0  0
    3.3163    1.6890    5.7872 H   0  0  0  0  0  0  0  0  0  0  0  0
    6.4320    4.7694    6.8369 H   0  0  0  0  0  0  0  0  0  0  0  0
    6.0754    2.5069    6.0434 H   0  0  0  0  0  0  0  0  0  0  0  0
  1 23  1  0  0  0  0
  1 26  3  0  0  0  0
  2  3  1  0  0  0  0
  2  4  2  0  0  0  0
  3  8  2  0  0  0  0
  4  9  1  0  0  0  0
  5  6  1  0  0  0  0
  5 10  2  0  0  0  0
  6 11  2  0  0  0  0
  7  8  1  0  0  0  0
  7  9  2  0  0  0  0
  8 24  1  0  0  0  0
  9 25  1  0  0  0  0
 10 12  1  0  0  0  0
 10 29  1  0  0  0  0
 11 21  1  0  0  0  0
 11 27  1  0  0  0  0
 12 27  2  0  0  0  0
 12 28  1  0  0  0  0
 13 28  2  0  0  0  0
 13 29  1  0  0  0  0
 13 31  1  0  0  0  0
 14 20  1  0  0  0  0
 14 32  2  0  0  0  0
 14 34  1  0  0  0  0
 15 30  1  0  0  0  0
 15 33  2  0  0  0  0
 15 35  1  0  0  0  0
 16 18  1  0  0  0  0
 16 20  1  0  0  0  0
 17 19  1  0  0  0  0
 17 20  1  0  0  0  0
 18 30  1  0  0  0  0
 19 30  1  0  0  0  0
 20 24  1  0  0  0  0
 22 35  1  0  0  0  0
 23 25  1  0  0  0  0
 25 31  1  0  0  0  0
  2 36  1  0  0  0  0
  3 37  1  0  0  0  0
  4 38  1  0  0  0  0
  5 39  1  0  0  0  0
  6 40  1  0  0  0  0
  7 41  1  0  0  0  0
 16 42  1  0  0  0  0
 16 43  1  0  0  0  0
 17 44  1  0  0  0  0
 17 45  1  0  0  0  0
 18 46  1  0  0  0  0
 18 47  1  0  0  0  0
 19 48  1  0  0  0  0
 19 49  1  0  0  0  0
 21 50  1  0  0  0  0
 21 51  1  0  0  0  0
 21 52  1  0  0  0  0
 22 53  1  0  0  0  0
 22 54  1  0  0  0  0
 22 55  1  0  0  0  0
 23 56  1  0  0  0  0
 23 57  1  0  0  0  0
 24 58  1  0  0  0  0
 24 59  1  0  0  0  0
 25 60  1  0  0  0  0
 29 61  1  0  0  0  0
 31 62  1  0  0  0  0
M  CHG  1  34  -1
M  END
> <Molecule Name>
cmp_11

> <mmff94s_NoEstat>
82.64

> <Kd_nM>
0.25

$$$$
cmp_12
  -OEChem-07021816503D

 67 70  0     1  0  0  0  0  0999 V2000
    4.1205   -0.8708    5.3460 C   0  0  0  0  0  0  0  0  0  0  0  0
    5.1386    1.8824    1.6132 C   0  0  0  0  0  0  0  0  0  0  0  0
    3.8755    2.0877    1.0582 C   0  0  0  0  0  0  0  0  0  0  0  0
    5.2779    1.7298    2.9927 C   0  0  0  0  0  0  0  0  0  0  0  0
    5.0561    7.3255    7.2567 C   0  0  0  0  0  0  0  0  0  0  0  0
    4.0111    8.2456    7.2599 C   0  0  0  0  0  0  0  0  0  0  0  0
    2.8909    1.9880    3.2623 C   0  0  0  0  0  0  0  0  0  0  0  0
    2.7517    2.1405    1.8828 C   0  0  0  0  0  0  0  0  0  0  0  0
    4.1541    1.7826    3.8172 C   0  0  0  0  0  0  0  0  0  0  0  0
    4.7378    6.0585    6.7800 C   0  0  0  0  0  0  0  0  0  0  0  0
    2.7583    7.8518    6.8014 C   0  0  0  0  0  0  0  0  0  0  0  0
    3.4595    5.7382    6.3371 C   0  0  0  0  0  0  0  0  0  0  0  0
    4.6072    3.9619    6.0982 C   0  0  0  0  0  0  0  0  0  0  0  0
   -0.3384    3.8450    0.5781 C   0  0  0  0  0  0  0  0  0  0  0  0
    2.6031    7.6495    2.1212 C   0  0  0  0  0  0  0  0  0  0  0  0
    2.0326    4.5882    0.2807 C   0  0  0  0  0  0  0  0  0  0  0  0
    0.9957    4.4821    2.5967 C   0  0  0  0  0  0  0  0  0  0  0  0
    1.8074    6.1011    0.2858 C   0  0  0  0  0  0  0  0  0  0  0  0
    0.7977    5.9970    2.5389 C   0  0  0  0  0  0  0  0  0  0  0  0
    1.0554    3.8483    1.2019 C   0  0  0  0  0  0  0  0  0  0  0  0
    1.6512    8.8569    6.8140 C   0  0  0  0  0  0  0  0  0  0  0  0
    4.3185    9.1952    1.5506 C   0  0  0  0  0  0  0  0  0  0  0  0
   -3.6789    3.8106    1.3109 C   0  0  0  0  0  0  0  0  0  0  0  0
    4.9469    0.2831    5.7340 C   0  0  0  0  0  0  0  0  0  0  0  0
    1.3926    2.3600    1.2847 C   0  0  0  0  0  0  0  0  0  0  0  0
    4.3033    1.6201    5.2924 C   0  0  1  0  0  0  0  0  0  0  0  0
    3.4685   -1.7811    5.0417 N   0  0  0  0  0  0  0  0  0  0  0  0
    2.4320    6.6236    6.3342 N   0  0  0  0  0  0  0  0  0  0  0  0
    3.3929    4.4337    5.9167 N   0  0  0  0  0  0  0  0  0  0  0  0
   -1.3946    3.8284    1.3198 N   0  0  0  0  0  0  0  0  0  0  0  0
    5.4543    4.9043    6.6164 N   0  0  0  0  0  0  0  0  0  0  0  0
    1.7832    6.6177    1.6566 N   0  0  0  0  0  0  0  0  0  0  0  0
    5.1090    2.7051    5.8441 N   0  0  0  0  0  0  0  0  0  0  0  0
    2.5846    8.0847    3.2712 O   0  0  0  0  0  0  0  0  0  0  0  0
    3.4426    8.1339    1.1533 O   0  0  0  0  0  0  0  0  0  0  0  0
   -2.5225    3.8290    0.4876 O   0  0  0  0  0  0  0  0  0  0  0  0
    6.0137    1.8411    0.9710 H   0  0  0  0  0  0  0  0  0  0  0  0
    3.7766    2.2050   -0.0178 H   0  0  0  0  0  0  0  0  0  0  0  0
    6.2660    1.5709    3.4164 H   0  0  0  0  0  0  0  0  0  0  0  0
    6.0496    7.5822    7.6030 H   0  0  0  0  0  0  0  0  0  0  0  0
    4.1835    9.2561    7.6182 H   0  0  0  0  0  0  0  0  0  0  0  0
    2.0151    2.0281    3.9056 H   0  0  0  0  0  0  0  0  0  0  0  0
   -0.3934    3.8563   -0.5248 H   0  0  0  0  0  0  0  0  0  0  0  0
    1.9616    4.2190   -0.7499 H   0  0  0  0  0  0  0  0  0  0  0  0
    3.0603    4.3939    0.6162 H   0  0  0  0  0  0  0  0  0  0  0  0
    1.9373    4.2792    3.1247 H   0  0  0  0  0  0  0  0  0  0  0  0
    0.1936    4.0384    3.1996 H   0  0  0  0  0  0  0  0  0  0  0  0
    2.5934    6.5814   -0.3039 H   0  0  0  0  0  0  0  0  0  0  0  0
    0.8497    6.3599   -0.1806 H   0  0  0  0  0  0  0  0  0  0  0  0
   -0.1974    6.2515    2.1559 H   0  0  0  0  0  0  0  0  0  0  0  0
    0.8719    6.4131    3.5490 H   0  0  0  0  0  0  0  0  0  0  0  0
    1.6272    9.4047    5.8657 H   0  0  0  0  0  0  0  0  0  0  0  0
    0.6796    8.3717    6.9640 H   0  0  0  0  0  0  0  0  0  0  0  0
    1.7803    9.5758    7.6318 H   0  0  0  0  0  0  0  0  0  0  0  0
    4.9357    9.4967    0.7007 H   0  0  0  0  0  0  0  0  0  0  0  0
    4.9531    8.8564    2.3734 H   0  0  0  0  0  0  0  0  0  0  0  0
    3.7186   10.0460    1.8822 H   0  0  0  0  0  0  0  0  0  0  0  0
   -4.5737    3.8107    0.6836 H   0  0  0  0  0  0  0  0  0  0  0  0
   -3.6775    4.6882    1.9623 H   0  0  0  0  0  0  0  0  0  0  0  0
   -3.6656    2.9053    1.9224 H   0  0  0  0  0  0  0  0  0  0  0  0
    5.1110    0.2699    6.8182 H   0  0  0  0  0  0  0  0  0  0  0  0
    5.9387    0.1724    5.2766 H   0  0  0  0  0  0  0  0  0  0  0  0
    1.3448    1.9279    0.2829 H   0  0  0  0  0  0  0  0  0  0  0  0
    0.6298    1.8546    1.8808 H   0  0  0  0  0  0  0  0  0  0  0  0
    3.3163    1.6890    5.7872 H   0  0  0  0  0  0  0  0  0  0  0  0
    6.4320    4.7694    6.8369 H   0  0  0  0  0  0  0  0  0  0  0  0
    6.0754    2.5069    6.0434 H   0  0  0  0  0  0  0  0  0  0  0  0
  1 24  1  0  0  0  0
  1 27  3  0  0  0  0
  2  3  1  0  0  0  0
  2  4  2  0  0  0  0
  3  8  2  0  0  0  0
  4  9  1  0  0  0  0
  5  6  1  0  0  0  0
  5 10  2  0  0  0  0
  6 11  2  0  0  0  0
  7  8  1  0  0  0  0
  7  9  2  0  0  0  0
  8 25  1  0  0  0  0
  9 26  1  0  0  0  0
 10 12  1  0  0  0  0
 10 31  1  0  0  0  0
 11 21  1  0  0  0  0
 11 28  1  0  0  0  0
 12 28  2  0  0  0  0
 12 29  1  0  0  0  0
 13 29  2  0  0  0  0
 13 31  1  0  0  0  0
 13 33  1  0  0  0  0
 14 20  1  0  0  0  0
 14 30  2  0  0  0  0
 15 32  1  0  0  0  0
 15 34  2  0  0  0  0
 15 35  1  0  0  0  0
 16 18  1  0  0  0  0
 16 20  1  0  0  0  0
 17 19  1  0  0  0  0
 17 20  1  0  0  0  0
 18 32  1  0  0  0  0
 19 32  1  0  0  0  0
 20 25  1  0  0  0  0
 22 35  1  0  0  0  0
 23 36  1  0  0  0  0
 24 26  1  0  0  0  0
 26 33  1  0  0  0  0
 30 36  1  0  0  0  0
  2 37  1  0  0  0  0
  3 38  1  0  0  0  0
  4 39  1  0  0  0  0
  5 40  1  0  0  0  0
  6 41  1  0  0  0  0
  7 42  1  0  0  0  0
 14 43  1  0  0  0  0
 16 44  1  0  0  0  0
 16 45  1  0  0  0  0
 17 46  1  0  0  0  0
 17 47  1  0  0  0  0
 18 48  1  0  0  0  0
 18 49  1  0  0  0  0
 19 50  1  0  0  0  0
 19 51  1  0  0  0  0
 21 52  1  0  0  0  0
 21 53  1  0  0  0  0
 21 54  1  0  0  0  0
 22 55  1  0  0  0  0
 22 56  1  0  0  0  0
 22 57  1  0  0  0  0
 23 58  1  0  0  0  0
 23 59  1  0  0  0  0
 23 60  1  0  0  0  0
 24 61  1  0  0  0  0
 24 62  1  0  0  0  0
 25 63  1  0  0  0  0
 25 64  1  0  0  0  0
 26 65  1  0  0  0  0
 31 66  1  0  0  0  0
 33 67  1  0  0  0  0
M  END
> <Molecule Name>
cmp_12

> <mmff94s_NoEstat>
81.92

> <Kd_nM>
0.49

$$$$
cmp_13
  -OEChem-07021816503D

 68 71  0     1  0  0  0  0  0999 V2000
    3.9441    3.8044    0.4666 C   0  0  0  0  0  0  0  0  0  0  0  0
   -0.6551    4.9218    0.0804 C   0  0  0  0  0  0  0  0  0  0  0  0
   -1.2693    3.7807    0.5962 C   0  0  0  0  0  0  0  0  0  0  0  0
    0.5831    5.3315    0.5752 C   0  0  0  0  0  0  0  0  0  0  0  0
    1.0421    8.6933    6.7421 C   0  0  0  0  0  0  0  0  0  0  0  0
    0.5052    8.1973    7.9271 C   0  0  0  0  0  0  0  0  0  0  0  0
    0.5926    3.4590    2.1019 C   0  0  0  0  0  0  0  0  0  0  0  0
   -0.6456    3.0493    1.6070 C   0  0  0  0  0  0  0  0  0  0  0  0
    1.2069    4.6001    1.5860 C   0  0  0  0  0  0  0  0  0  0  0  0
    1.3342    7.7412    5.7716 C   0  0  0  0  0  0  0  0  0  0  0  0
    0.3023    6.8276    8.0597 C   0  0  0  0  0  0  0  0  0  0  0  0
    1.1030    6.3858    5.9769 C   0  0  0  0  0  0  0  0  0  0  0  0
    1.9190    6.5343    4.0169 C   0  0  0  0  0  0  0  0  0  0  0  0
    0.6058    2.4837    6.0071 C   0  0  0  0  0  0  0  0  0  0  0  0
   -6.2176    0.8925    2.2406 C   0  0  0  0  0  0  0  0  0  0  0  0
   -2.8890    0.9022    3.9205 C   0  0  0  0  0  0  0  0  0  0  0  0
   -3.3099    3.1716    2.9415 C   0  0  0  0  0  0  0  0  0  0  0  0
   -3.9399    0.3146    2.9822 C   0  0  0  0  0  0  0  0  0  0  0  0
   -4.3606    2.5667    2.0121 C   0  0  0  0  0  0  0  0  0  0  0  0
   -2.2121    2.1689    3.3555 C   0  0  0  0  0  0  0  0  0  0  0  0
   -0.2756    6.3178    9.3411 C   0  0  0  0  0  0  0  0  0  0  0  0
   -8.3807    1.5751    1.5238 C   0  0  0  0  0  0  0  0  0  0  0  0
    3.6559    5.1216    1.0556 C   0  0  0  0  0  0  0  0  0  0  0  0
   -1.3058    1.8220    2.1599 C   0  0  0  0  0  0  0  0  0  0  0  0
   -0.2594    1.8546    4.9436 C   0  0  0  0  0  0  0  0  0  0  0  0
   -1.3350    2.8038    4.4502 C   0  0  0  0  0  0  0  0  0  0  0  0
    2.5305    5.0387    2.1155 C   0  0  1  0  0  0  0  0  0  0  0  0
    4.1730    2.7657    0.0029 N   0  0  0  0  0  0  0  0  0  0  0  0
    0.5807    5.8880    7.1254 N   0  0  0  0  0  0  0  0  0  0  0  0
    1.4705    5.6484    4.8794 N   0  0  0  0  0  0  0  0  0  0  0  0
    1.8567    7.8104    4.5089 N   0  0  0  0  0  0  0  0  0  0  0  0
   -4.9119    1.3140    2.5395 N   0  0  0  0  0  0  0  0  0  0  0  0
    2.4161    6.3503    2.7460 N   0  0  0  0  0  0  0  0  0  0  0  0
    1.7971    2.7265    5.8606 O   0  0  0  0  0  0  0  0  0  0  0  0
   -6.6060   -0.2713    2.3257 O   0  0  0  0  0  0  0  0  0  0  0  0
   -0.0799    2.7791    7.1387 O   0  5  0  0  0  0  0  0  0  0  0  0
   -7.0285    1.9229    1.8431 O   0  0  0  0  0  0  0  0  0  0  0  0
   -1.1408    5.4912   -0.7068 H   0  0  0  0  0  0  0  0  0  0  0  0
   -2.2339    3.4687    0.2040 H   0  0  0  0  0  0  0  0  0  0  0  0
    1.0540    6.2223    0.1679 H   0  0  0  0  0  0  0  0  0  0  0  0
    1.2194    9.7507    6.5891 H   0  0  0  0  0  0  0  0  0  0  0  0
    0.2515    8.8809    8.7318 H   0  0  0  0  0  0  0  0  0  0  0  0
    1.0798    2.8887    2.8892 H   0  0  0  0  0  0  0  0  0  0  0  0
   -3.3821    1.1525    4.8697 H   0  0  0  0  0  0  0  0  0  0  0  0
   -2.1389    0.1360    4.1518 H   0  0  0  0  0  0  0  0  0  0  0  0
   -2.8650    4.0522    2.4620 H   0  0  0  0  0  0  0  0  0  0  0  0
   -3.8224    3.5336    3.8436 H   0  0  0  0  0  0  0  0  0  0  0  0
   -3.4758   -0.1104    2.0850 H   0  0  0  0  0  0  0  0  0  0  0  0
   -4.4570   -0.5072    3.4896 H   0  0  0  0  0  0  0  0  0  0  0  0
   -5.1585    3.3002    1.8601 H   0  0  0  0  0  0  0  0  0  0  0  0
   -3.9384    2.3472    1.0252 H   0  0  0  0  0  0  0  0  0  0  0  0
   -1.3690    6.2919    9.2789 H   0  0  0  0  0  0  0  0  0  0  0  0
    0.0875    5.3075    9.5633 H   0  0  0  0  0  0  0  0  0  0  0  0
    0.0132    6.9552   10.1852 H   0  0  0  0  0  0  0  0  0  0  0  0
   -8.9270    2.4722    1.2223 H   0  0  0  0  0  0  0  0  0  0  0  0
   -8.8570    1.1216    2.3967 H   0  0  0  0  0  0  0  0  0  0  0  0
   -8.3781    0.8585    0.6991 H   0  0  0  0  0  0  0  0  0  0  0  0
    4.5718    5.5374    1.4926 H   0  0  0  0  0  0  0  0  0  0  0  0
    3.3660    5.8088    0.2501 H   0  0  0  0  0  0  0  0  0  0  0  0
   -1.9076    1.3330    1.3930 H   0  0  0  0  0  0  0  0  0  0  0  0
   -0.5573    1.0983    2.4845 H   0  0  0  0  0  0  0  0  0  0  0  0
   -0.6815    0.9082    5.2991 H   0  0  0  0  0  0  0  0  0  0  0  0
    0.4022    1.5926    4.1091 H   0  0  0  0  0  0  0  0  0  0  0  0
   -0.8696    3.6943    4.0261 H   0  0  0  0  0  0  0  0  0  0  0  0
   -1.9844    3.1214    5.2668 H   0  0  0  0  0  0  0  0  0  0  0  0
    2.8748    4.3470    2.9071 H   0  0  0  0  0  0  0  0  0  0  0  0
    2.1447    8.6501    4.0245 H   0  0  0  0  0  0  0  0  0  0  0  0
    2.7211    7.1471    2.2121 H   0  0  0  0  0  0  0  0  0  0  0  0
  1 23  1  0  0  0  0
  1 28  3  0  0  0  0
  2  3  1  0  0  0  0
  2  4  2  0  0  0  0
  3  8  2  0  0  0  0
  4  9  1  0  0  0  0
  5  6  1  0  0  0  0
  5 10  2  0  0  0  0
  6 11  2  0  0  0  0
  7  8  1  0  0  0  0
  7  9  2  0  0  0  0
  8 24  1  0  0  0  0
  9 27  1  0  0  0  0
 10 12  1  0  0  0  0
 10 31  1  0  0  0  0
 11 21  1  0  0  0  0
 11 29  1  0  0  0  0
 12 29  2  0  0  0  0
 12 30  1  0  0  0  0
 13 30  2  0  0  0  0
 13 31  1  0  0  0  0
 13 33  1  0  0  0  0
 14 25  1  0  0  0  0
 14 34  2  0  0  0  0
 14 36  1  0  0  0  0
 15 32  1  0  0  0  0
 15 35  2  0  0  0  0
 15 37  1  0  0  0  0
 16 18  1  0  0  0  0
 16 20  1  0  0  0  0
 17 19  1  0  0  0  0
 17 20  1  0  0  0  0
 18 32  1  0  0  0  0
 19 32  1  0  0  0  0
 20 24  1  0  0  0  0
 20 26  1  0  0  0  0
 22 37  1  0  0  0  0
 23 27  1  0  0  0  0
 25 26  1  0  0  0  0
 27 33  1  0  0  0  0
  2 38  1  0  0  0  0
  3 39  1  0  0  0  0
  4 40  1  0  0  0  0
  5 41  1  0  0  0  0
  6 42  1  0  0  0  0
  7 43  1  0  0  0  0
 16 44  1  0  0  0  0
 16 45  1  0  0  0  0
 17 46  1  0  0  0  0
 17 47  1  0  0  0  0
 18 48  1  0  0  0  0
 18 49  1  0  0  0  0
 19 50  1  0  0  0  0
 19 51  1  0  0  0  0
 21 52  1  0  0  0  0
 21 53  1  0  0  0  0
 21 54  1  0  0  0  0
 22 55  1  0  0  0  0
 22 56  1  0  0  0  0
 22 57  1  0  0  0  0
 23 58  1  0  0  0  0
 23 59  1  0  0  0  0
 24 60  1  0  0  0  0
 24 61  1  0  0  0  0
 25 62  1  0  0  0  0
 25 63  1  0  0  0  0
 26 64  1  0  0  0  0
 26 65  1  0  0  0  0
 27 66  1  0  0  0  0
 31 67  1  0  0  0  0
 33 68  1  0  0  0  0
M  CHG  1  36  -1
M  END
> <Molecule Name>
cmp_13

> <mmff94s_NoEstat>
95.49

> <Kd_nM>
0.85

$$$$
cmp_14
  -OEChem-07021816503D

 67 70  0     1  0  0  0  0  0999 V2000
    0.5391    2.4322    5.9914 C   0  0  0  0  0  0  0  0  0  0  0  0
    3.9441    3.8044    0.4666 C   0  0  0  0  0  0  0  0  0  0  0  0
   -0.6551    4.9218    0.0804 C   0  0  0  0  0  0  0  0  0  0  0  0
   -1.2693    3.7807    0.5962 C   0  0  0  0  0  0  0  0  0  0  0  0
    0.5831    5.3315    0.5752 C   0  0  0  0  0  0  0  0  0  0  0  0
    1.0421    8.6933    6.7421 C   0  0  0  0  0  0  0  0  0  0  0  0
    0.5052    8.1973    7.9271 C   0  0  0  0  0  0  0  0  0  0  0  0
    0.5926    3.4590    2.1019 C   0  0  0  0  0  0  0  0  0  0  0  0
   -0.6456    3.0493    1.6070 C   0  0  0  0  0  0  0  0  0  0  0  0
    1.2069    4.6001    1.5860 C   0  0  0  0  0  0  0  0  0  0  0  0
    1.3342    7.7412    5.7716 C   0  0  0  0  0  0  0  0  0  0  0  0
    0.3023    6.8276    8.0597 C   0  0  0  0  0  0  0  0  0  0  0  0
    1.1030    6.3858    5.9769 C   0  0  0  0  0  0  0  0  0  0  0  0
    1.9190    6.5343    4.0169 C   0  0  0  0  0  0  0  0  0  0  0  0
   -6.2176    0.8925    2.2406 C   0  0  0  0  0  0  0  0  0  0  0  0
   -2.8890    0.9022    3.9205 C   0  0  0  0  0  0  0  0  0  0  0  0
   -3.3099    3.1716    2.9415 C   0  0  0  0  0  0  0  0  0  0  0  0
   -3.9399    0.3146    2.9822 C   0  0  0  0  0  0  0  0  0  0  0  0
   -4.3606    2.5667    2.0121 C   0  0  0  0  0  0  0  0  0  0  0  0
   -2.2121    2.1689    3.3555 C   0  0  0  0  0  0  0  0  0  0  0  0
   -0.2756    6.3178    9.3411 C   0  0  0  0  0  0  0  0  0  0  0  0
   -8.3807    1.5751    1.5238 C   0  0  0  0  0  0  0  0  0  0  0  0
   -0.2878    1.8185    4.9440 C   0  0  0  0  0  0  0  0  0  0  0  0
    3.6559    5.1216    1.0556 C   0  0  0  0  0  0  0  0  0  0  0  0
   -1.3058    1.8220    2.1599 C   0  0  0  0  0  0  0  0  0  0  0  0
   -1.3350    2.8038    4.4502 C   0  0  0  0  0  0  0  0  0  0  0  0
    2.5305    5.0387    2.1155 C   0  0  1  0  0  0  0  0  0  0  0  0
    1.1935    2.9154    6.8189 N   0  0  0  0  0  0  0  0  0  0  0  0
    4.1730    2.7657    0.0029 N   0  0  0  0  0  0  0  0  0  0  0  0
    0.5807    5.8880    7.1254 N   0  0  0  0  0  0  0  0  0  0  0  0
    1.4705    5.6484    4.8794 N   0  0  0  0  0  0  0  0  0  0  0  0
    1.8567    7.8104    4.5089 N   0  0  0  0  0  0  0  0  0  0  0  0
   -4.9119    1.3140    2.5395 N   0  0  0  0  0  0  0  0  0  0  0  0
    2.4161    6.3503    2.7460 N   0  0  0  0  0  0  0  0  0  0  0  0
   -6.6060   -0.2713    2.3257 O   0  0  0  0  0  0  0  0  0  0  0  0
   -7.0285    1.9229    1.8431 O   0  0  0  0  0  0  0  0  0  0  0  0
   -1.1408    5.4912   -0.7068 H   0  0  0  0  0  0  0  0  0  0  0  0
   -2.2339    3.4687    0.2040 H   0  0  0  0  0  0  0  0  0  0  0  0
    1.0540    6.2223    0.1679 H   0  0  0  0  0  0  0  0  0  0  0  0
    1.2194    9.7507    6.5891 H   0  0  0  0  0  0  0  0  0  0  0  0
    0.2515    8.8809    8.7318 H   0  0  0  0  0  0  0  0  0  0  0  0
    1.0798    2.8887    2.8892 H   0  0  0  0  0  0  0  0  0  0  0  0
   -3.3821    1.1525    4.8697 H   0  0  0  0  0  0  0  0  0  0  0  0
   -2.1389    0.1360    4.1518 H   0  0  0  0  0  0  0  0  0  0  0  0
   -2.8650    4.0522    2.4620 H   0  0  0  0  0  0  0  0  0  0  0  0
   -3.8224    3.5336    3.8436 H   0  0  0  0  0  0  0  0  0  0  0  0
   -3.4758   -0.1104    2.0850 H   0  0  0  0  0  0  0  0  0  0  0  0
   -4.4570   -0.5072    3.4896 H   0  0  0  0  0  0  0  0  0  0  0  0
   -5.1585    3.3002    1.8601 H   0  0  0  0  0  0  0  0  0  0  0  0
   -3.9384    2.3472    1.0252 H   0  0  0  0  0  0  0  0  0  0  0  0
   -1.3690    6.2919    9.2789 H   0  0  0  0  0  0  0  0  0  0  0  0
    0.0875    5.3075    9.5633 H   0  0  0  0  0  0  0  0  0  0  0  0
    0.0132    6.9552   10.1852 H   0  0  0  0  0  0  0  0  0  0  0  0
   -8.9270    2.4722    1.2223 H   0  0  0  0  0  0  0  0  0  0  0  0
   -8.8570    1.1216    2.3967 H   0  0  0  0  0  0  0  0  0  0  0  0
   -8.3781    0.8585    0.6991 H   0  0  0  0  0  0  0  0  0  0  0  0
    0.3525    1.4990    4.1138 H   0  0  0  0  0  0  0  0  0  0  0  0
   -0.7720    0.9190    5.3413 H   0  0  0  0  0  0  0  0  0  0  0  0
    4.5718    5.5374    1.4926 H   0  0  0  0  0  0  0  0  0  0  0  0
    3.3660    5.8088    0.2501 H   0  0  0  0  0  0  0  0  0  0  0  0
   -1.9076    1.3330    1.3930 H   0  0  0  0  0  0  0  0  0  0  0  0
   -0.5573    1.0983    2.4845 H   0  0  0  0  0  0  0  0  0  0  0  0
   -0.8646    3.6964    4.0353 H   0  0  0  0  0  0  0  0  0  0  0  0
   -1.9852    3.1221    5.2663 H   0  0  0  0  0  0  0  0  0  0  0  0
    2.8748    4.3470    2.9071 H   0  0  0  0  0  0  0  0  0  0  0  0
    2.1447    8.6501    4.0245 H   0  0  0  0  0  0  0  0  0  0  0  0
    2.7211    7.1471    2.2121 H   0  0  0  0  0  0  0  0  0  0  0  0
  1 23  1  0  0  0  0
  1 28  3  0  0  0  0
  2 24  1  0  0  0  0
  2 29  3  0  0  0  0
  3  4  1  0  0  0  0
  3  5  2  0  0  0  0
  4  9  2  0  0  0  0
  5 10  1  0  0  0  0
  6  7  1  0  0  0  0
  6 11  2  0  0  0  0
  7 12  2  0  0  0  0
  8  9  1  0  0  0  0
  8 10  2  0  0  0  0
  9 25  1  0  0  0  0
 10 27  1  0  0  0  0
 11 13  1  0  0  0  0
 11 32  1  0  0  0  0
 12 21  1  0  0  0  0
 12 30  1  0  0  0  0
 13 30  2  0  0  0  0
 13 31  1  0  0  0  0
 14 31  2  0  0  0  0
 14 32  1  0  0  0  0
 14 34  1  0  0  0  0
 15 33  1  0  0  0  0
 15 35  2  0  0  0  0
 15 36  1  0  0  0  0
 16 18  1  0  0  0  0
 16 20  1  0  0  0  0
 17 19  1  0  0  0  0
 17 20  1  0  0  0  0
 18 33  1  0  0  0  0
 19 33  1  0  0  0  0
 20 25  1  0  0  0  0
 20 26  1  0  0  0  0
 22 36  1  0  0  0  0
 23 26  1  0  0  0  0
 24 27  1  0  0  0  0
 27 34  1  0  0  0  0
  3 37  1  0  0  0  0
  4 38  1  0  0  0  0
  5 39  1  0  0  0  0
  6 40  1  0  0  0  0
  7 41  1  0  0  0  0
  8 42  1  0  0  0  0
 16 43  1  0  0  0  0
 16 44  1  0  0  0  0
 17 45  1  0  0  0  0
 17 46  1  0  0  0  0
 18 47  1  0  0  0  0
 18 48  1  0  0  0  0
 19 49  1  0  0  0  0
 19 50  1  0  0  0  0
 21 51  1  0  0  0  0
 21 52  1  0  0  0  0
 21 53  1  0  0  0  0
 22 54  1  0  0  0  0
 22 55  1  0  0  0  0
 22 56  1  0  0  0  0
 23 57  1  0  0  0  0
 23 58  1  0  0  0  0
 24 59  1  0  0  0  0
 24 60  1  0  0  0  0
 25 61  1  0  0  0  0
 25 62  1  0  0  0  0
 26 63  1  0  0  0  0
 26 64  1  0  0  0  0
 27 65  1  0  0  0  0
 32 66  1  0  0  0  0
 34 67  1  0  0  0  0
M  END
> <Molecule Name>
cmp_14

> <mmff94s_NoEstat>
93.67

> <Kd_nM>
0.54

$$$$
cmp_15
  -OEChem-07021816503D

 73 76  0     1  0  0  0  0  0999 V2000
   -0.7294    7.4598    3.3627 C   0  0  0  0  0  0  0  0  0  0  0  0
   -0.0461    4.4309   -0.2821 C   0  0  0  0  0  0  0  0  0  0  0  0
   -0.6613    3.2900    0.2331 C   0  0  0  0  0  0  0  0  0  0  0  0
    0.5850    5.3310    0.5764 C   0  0  0  0  0  0  0  0  0  0  0  0
    6.9977    4.0078    3.0792 C   0  0  0  0  0  0  0  0  0  0  0  0
    7.8610    4.1264    1.9933 C   0  0  0  0  0  0  0  0  0  0  0  0
   -0.0145    3.9495    2.4656 C   0  0  0  0  0  0  0  0  0  0  0  0
   -0.6456    3.0493    1.6070 C   0  0  0  0  0  0  0  0  0  0  0  0
    0.6008    5.0903    1.9503 C   0  0  0  0  0  0  0  0  0  0  0  0
    5.7193    4.5202    2.8874 C   0  0  0  0  0  0  0  0  0  0  0  0
    7.4047    4.7291    0.8257 C   0  0  0  0  0  0  0  0  0  0  0  0
    5.3347    5.1100    1.6886 C   0  0  0  0  0  0  0  0  0  0  0  0
    3.6242    5.2162    2.9504 C   0  0  0  0  0  0  0  0  0  0  0  0
   -2.0156   -2.4754   -0.2946 C   0  0  0  0  0  0  0  0  0  0  0  0
    0.2173    0.2959    0.8168 C   0  0  0  0  0  0  0  0  0  0  0  0
   -1.0005   -0.6135    2.8108 C   0  0  0  0  0  0  0  0  0  0  0  0
   -0.8407   -0.3186   -0.0958 C   0  0  0  0  0  0  0  0  0  0  0  0
   -2.0484   -1.2242    1.8819 C   0  0  0  0  0  0  0  0  0  0  0  0
   -0.3203    0.6405    2.2220 C   0  0  0  0  0  0  0  0  0  0  0  0
    8.3495    4.8452   -0.3275 C   0  0  0  0  0  0  0  0  0  0  0  0
   -3.1545   -4.5629   -0.3569 C   0  0  0  0  0  0  0  0  0  0  0  0
    0.3561    6.6625    3.9551 C   0  0  0  0  0  0  0  0  0  0  0  0
   -1.3058    1.8220    2.1599 C   0  0  0  0  0  0  0  0  0  0  0  0
    0.8567    1.0485    3.1269 C   0  0  0  0  0  0  0  0  0  0  0  0
    1.4358    1.7893    5.3364 C   0  0  0  0  0  0  0  0  0  0  0  0
    0.8475    2.0867    6.7036 C   0  0  0  0  0  0  0  0  0  0  0  0
    1.2751    6.0533    2.8683 C   0  0  1  0  0  0  0  0  0  0  0  0
   -1.5848    8.0899    2.8962 N   0  0  0  0  0  0  0  0  0  0  0  0
    6.1643    5.2324    0.6225 N   0  0  0  0  0  0  0  0  0  0  0  0
    4.0318    5.5373    1.7419 N   0  0  0  0  0  0  0  0  0  0  0  0
    4.6061    4.6002    3.6790 N   0  0  0  0  0  0  0  0  0  0  0  0
   -1.5267   -1.4490    0.5296 N   0  0  0  0  0  0  0  0  0  0  0  0
    2.3972    5.4096    3.5446 N   0  0  0  0  0  0  0  0  0  0  0  0
    0.3650    1.3751    4.4183 N   0  3  0  0  0  0  0  0  0  0  0  0
   -1.9065   -2.4911   -1.5195 O   0  0  0  0  0  0  0  0  0  0  0  0
    1.8912    2.4524    7.5974 O   0  0  0  0  0  0  0  0  0  0  0  0
   -2.6314   -3.4742    0.4129 O   0  0  0  0  0  0  0  0  0  0  0  0
   -0.0584    4.6182   -1.3520 H   0  0  0  0  0  0  0  0  0  0  0  0
   -1.1502    2.5940   -0.4436 H   0  0  0  0  0  0  0  0  0  0  0  0
    1.0612    6.2177    0.1662 H   0  0  0  0  0  0  0  0  0  0  0  0
    7.3042    3.5469    4.0101 H   0  0  0  0  0  0  0  0  0  0  0  0
    8.8766    3.7489    2.0681 H   0  0  0  0  0  0  0  0  0  0  0  0
   -0.0010    3.7618    3.5366 H   0  0  0  0  0  0  0  0  0  0  0  0
    1.0416   -0.4235    0.9151 H   0  0  0  0  0  0  0  0  0  0  0  0
    0.6380    1.1879    0.3368 H   0  0  0  0  0  0  0  0  0  0  0  0
   -1.4639   -0.3812    3.7776 H   0  0  0  0  0  0  0  0  0  0  0  0
   -0.2349   -1.3768    3.0075 H   0  0  0  0  0  0  0  0  0  0  0  0
   -1.6050    0.4183   -0.3677 H   0  0  0  0  0  0  0  0  0  0  0  0
   -0.3675   -0.6418   -1.0296 H   0  0  0  0  0  0  0  0  0  0  0  0
   -2.3971   -2.1657    2.3174 H   0  0  0  0  0  0  0  0  0  0  0  0
   -2.9246   -0.5730    1.7894 H   0  0  0  0  0  0  0  0  0  0  0  0
    8.2742    3.9599   -0.9685 H   0  0  0  0  0  0  0  0  0  0  0  0
    8.1295    5.7344   -0.9298 H   0  0  0  0  0  0  0  0  0  0  0  0
    9.3853    4.9408    0.0191 H   0  0  0  0  0  0  0  0  0  0  0  0
   -3.6189   -5.2924    0.3112 H   0  0  0  0  0  0  0  0  0  0  0  0
   -2.3453   -5.0331   -0.9213 H   0  0  0  0  0  0  0  0  0  0  0  0
   -3.9053   -4.1787   -1.0515 H   0  0  0  0  0  0  0  0  0  0  0  0
    0.9339    7.2856    4.6484 H   0  0  0  0  0  0  0  0  0  0  0  0
   -0.0884    5.8647    4.5641 H   0  0  0  0  0  0  0  0  0  0  0  0
   -1.6894    2.0129    3.1627 H   0  0  0  0  0  0  0  0  0  0  0  0
   -2.1589    1.5361    1.5435 H   0  0  0  0  0  0  0  0  0  0  0  0
    1.3341    1.9093    2.6873 H   0  0  0  0  0  0  0  0  0  0  0  0
    1.5378    0.2160    3.1936 H   0  0  0  0  0  0  0  0  0  0  0  0
    1.9265    2.6724    4.9150 H   0  0  0  0  0  0  0  0  0  0  0  0
    2.1621    0.9737    5.4036 H   0  0  0  0  0  0  0  0  0  0  0  0
    0.3580    1.1931    7.1033 H   0  0  0  0  0  0  0  0  0  0  0  0
    0.1193    2.9031    6.6596 H   0  0  0  0  0  0  0  0  0  0  0  0
    1.7056    6.8941    2.2927 H   0  0  0  0  0  0  0  0  0  0  0  0
    4.5212    4.2655    4.6295 H   0  0  0  0  0  0  0  0  0  0  0  0
    2.2495    5.0996    4.4907 H   0  0  0  0  0  0  0  0  0  0  0  0
   -0.2919    2.1241    4.3320 H   0  0  0  0  0  0  0  0  0  0  0  0
    1.4741    2.6331    8.4551 H   0  0  0  0  0  0  0  0  0  0  0  0
   -0.0931    0.5724    4.8002 H   0  0  0  0  0  0  0  0  0  0  0  0
  1 22  1  0  0  0  0
  1 28  3  0  0  0  0
  2  3  1  0  0  0  0
  2  4  2  0  0  0  0
  3  8  2  0  0  0  0
  4  9  1  0  0  0  0
  5  6  1  0  0  0  0
  5 10  2  0  0  0  0
  6 11  2  0  0  0  0
  7  8  1  0  0  0  0
  7  9  2  0  0  0  0
  8 23  1  0  0  0  0
  9 27  1  0  0  0  0
 10 12  1  0  0  0  0
 10 31  1  0  0  0  0
 11 20  1  0  0  0  0
 11 29  1  0  0  0  0
 12 29  2  0  0  0  0
 12 30  1  0  0  0  0
 13 30  2  0  0  0  0
 13 31  1  0  0  0  0
 13 33  1  0  0  0  0
 14 32  1  0  0  0  0
 14 35  2  0  0  0  0
 14 37  1  0  0  0  0
 15 17  1  0  0  0  0
 15 19  1  0  0  0  0
 16 18  1  0  0  0  0
 16 19  1  0  0  0  0
 17 32  1  0  0  0  0
 18 32  1  0  0  0  0
 19 23  1  0  0  0  0
 19 24  1  0  0  0  0
 21 37  1  0  0  0  0
 22 27  1  0  0  0  0
 24 34  1  0  0  0  0
 25 26  1  0  0  0  0
 25 34  1  0  0  0  0
 26 36  1  0  0  0  0
 27 33  1  0  0  0  0
  2 38  1  0  0  0  0
  3 39  1  0  0  0  0
  4 40  1  0  0  0  0
  5 41  1  0  0  0  0
  6 42  1  0  0  0  0
  7 43  1  0  0  0  0
 15 44  1  0  0  0  0
 15 45  1  0  0  0  0
 16 46  1  0  0  0  0
 16 47  1  0  0  0  0
 17 48  1  0  0  0  0
 17 49  1  0  0  0  0
 18 50  1  0  0  0  0
 18 51  1  0  0  0  0
 20 52  1  0  0  0  0
 20 53  1  0  0  0  0
 20 54  1  0  0  0  0
 21 55  1  0  0  0  0
 21 56  1  0  0  0  0
 21 57  1  0  0  0  0
 22 58  1  0  0  0  0
 22 59  1  0  0  0  0
 23 60  1  0  0  0  0
 23 61  1  0  0  0  0
 24 62  1  0  0  0  0
 24 63  1  0  0  0  0
 25 64  1  0  0  0  0
 25 65  1  0  0  0  0
 26 66  1  0  0  0  0
 26 67  1  0  0  0  0
 27 68  1  0  0  0  0
 31 69  1  0  0  0  0
 33 70  1  0  0  0  0
 34 71  1  0  0  0  0
 36 72  1  0  0  0  0
 34 73  1  0  0  0  0
M  CHG  1  34   1
M  END
> <Molecule Name>
cmp_15

> <mmff94s_NoEstat>
88.25

> <Kd_nM>
2

$$$$
cmp_16
  -OEChem-07021816503D

 51 55  0     1  0  0  0  0  0999 V2000
   -4.6204    4.4849    4.6072 C   0  0  0  0  0  0  0  0  0  0  0  0
   -4.9364    3.1543    4.3331 C   0  0  0  0  0  0  0  0  0  0  0  0
   -8.8589    5.4207   -4.0693 C   0  0  0  0  0  0  0  0  0  0  0  0
   -8.5746    4.3467   -3.2209 C   0  0  0  0  0  0  0  0  0  0  0  0
   -4.3110    5.3575    3.5638 C   0  0  0  0  0  0  0  0  0  0  0  0
   -4.6336    3.5686    1.9722 C   0  0  0  0  0  0  0  0  0  0  0  0
  -10.0689    5.2364   -1.5314 C   0  0  0  0  0  0  0  0  0  0  0  0
   -4.9430    2.6961    3.0156 C   0  0  0  0  0  0  0  0  0  0  0  0
   -9.7608    6.4234   -3.6520 C   0  0  0  0  0  0  0  0  0  0  0  0
   -9.1729    4.2577   -1.9688 C   0  0  0  0  0  0  0  0  0  0  0  0
  -10.3500    6.3123   -2.3889 C   0  0  0  0  0  0  0  0  0  0  0  0
   -4.3176    4.8993    2.2463 C   0  0  0  0  0  0  0  0  0  0  0  0
  -10.9897    8.2552   -3.6855 C   0  0  0  0  0  0  0  0  0  0  0  0
   -7.7558    1.2734    2.3739 C   0  0  0  0  0  0  0  0  0  0  0  0
   -9.8053    1.3784    1.9306 C   0  0  0  0  0  0  0  0  0  0  0  0
  -11.0299    2.5426   -0.2759 C   0  0  0  0  0  0  0  0  0  0  0  0
   -9.6905    2.5921   -0.1938 C   0  0  0  0  0  0  0  0  0  0  0  0
  -11.7386    1.8560    0.8453 C   0  0  0  0  0  0  0  0  0  0  0  0
  -11.6014    9.5174   -4.1549 C   0  0  0  0  0  0  0  0  0  0  0  0
  -13.2436    1.7932    0.7658 C   0  0  0  0  0  0  0  0  0  0  0  0
   -4.3197    0.2723    3.3838 C   0  0  0  0  0  0  0  0  0  0  0  0
   -5.2848    1.2519    2.7191 C   0  0  1  0  0  0  0  0  0  0  0  0
  -10.1372    7.5410   -4.3825 N   0  0  0  0  0  0  0  0  0  0  0  0
   -8.9773    0.9179    2.8467 N   0  0  0  0  0  0  0  0  0  0  0  0
   -7.7493    1.9303    1.2180 N   0  0  0  0  0  0  0  0  0  0  0  0
  -11.1649    1.3111    1.8773 N   0  0  0  0  0  0  0  0  0  0  0  0
   -9.0725    2.0057    0.9181 N   0  0  0  0  0  0  0  0  0  0  0  0
   -8.8768    3.1818   -1.1394 N   0  0  0  0  0  0  0  0  0  0  0  0
   -6.6583    0.9394    3.1005 N   0  0  0  0  0  0  0  0  0  0  0  0
  -11.3987    7.6573   -2.1359 S   0  0  0  0  0  0  0  0  0  0  0  0
   -3.9347    5.9760    0.9595 Cl  0  0  0  0  0  0  0  0  0  0  0  0
   -4.6152    4.8412    5.6332 H   0  0  0  0  0  0  0  0  0  0  0  0
   -5.1761    2.4814    5.1523 H   0  0  0  0  0  0  0  0  0  0  0  0
   -8.3858    5.4802   -5.0455 H   0  0  0  0  0  0  0  0  0  0  0  0
   -7.8777    3.5813   -3.5548 H   0  0  0  0  0  0  0  0  0  0  0  0
   -4.0663    6.3919    3.7923 H   0  0  0  0  0  0  0  0  0  0  0  0
   -4.6406    3.2067    0.9467 H   0  0  0  0  0  0  0  0  0  0  0  0
  -10.5377    5.1691   -0.5535 H   0  0  0  0  0  0  0  0  0  0  0  0
  -11.5932    2.9667   -1.0970 H   0  0  0  0  0  0  0  0  0  0  0  0
  -12.5440    9.3236   -4.6901 H   0  0  0  0  0  0  0  0  0  0  0  0
  -11.8219   10.2024   -3.3199 H   0  0  0  0  0  0  0  0  0  0  0  0
  -10.9332   10.0690   -4.8364 H   0  0  0  0  0  0  0  0  0  0  0  0
  -13.5334    0.8884    0.2423 H   0  0  0  0  0  0  0  0  0  0  0  0
  -13.6074    2.6644    0.2308 H   0  0  0  0  0  0  0  0  0  0  0  0
  -13.6518    1.7876    1.7712 H   0  0  0  0  0  0  0  0  0  0  0  0
   -4.3244    0.3914    4.4728 H   0  0  0  0  0  0  0  0  0  0  0  0
   -4.6029   -0.7611    3.1542 H   0  0  0  0  0  0  0  0  0  0  0  0
   -3.2905    0.4092    3.0333 H   0  0  0  0  0  0  0  0  0  0  0  0
   -5.2367    1.0861    1.6358 H   0  0  0  0  0  0  0  0  0  0  0  0
   -7.9685    2.7622   -1.2139 H   0  0  0  0  0  0  0  0  0  0  0  0
   -6.7720    0.4293    3.9850 H   0  0  0  0  0  0  0  0  0  0  0  0
  1  2  1  0  0  0  0
  1  5  2  0  0  0  0
  2  8  2  0  0  0  0
  3  4  2  0  0  0  0
  3  9  1  0  0  0  0
  4 10  1  0  0  0  0
  5 12  1  0  0  0  0
  6  8  1  0  0  0  0
  6 12  2  0  0  0  0
  7 10  2  0  0  0  0
  7 11  1  0  0  0  0
  8 22  1  0  0  0  0
  9 11  2  0  0  0  0
  9 23  1  0  0  0  0
 10 28  1  0  0  0  0
 11 30  1  0  0  0  0
 12 31  1  0  0  0  0
 13 19  1  0  0  0  0
 13 23  2  0  0  0  0
 13 30  1  0  0  0  0
 14 24  1  0  0  0  0
 14 25  2  0  0  0  0
 14 29  1  0  0  0  0
 15 24  2  0  0  0  0
 15 26  1  0  0  0  0
 15 27  1  0  0  0  0
 16 17  2  0  0  0  0
 16 18  1  0  0  0  0
 17 27  1  0  0  0  0
 17 28  1  0  0  0  0
 18 20  1  0  0  0  0
 18 26  2  0  0  0  0
 21 22  1  0  0  0  0
 22 29  1  0  0  0  0
 25 27  1  0  0  0  0
  1 32  1  0  0  0  0
  2 33  1  0  0  0  0
  3 34  1  0  0  0  0
  4 35  1  0  0  0  0
  5 36  1  0  0  0  0
  6 37  1  0  0  0  0
  7 38  1  0  0  0  0
 16 39  1  0  0  0  0
 19 40  1  0  0  0  0
 19 41  1  0  0  0  0
 19 42  1  0  0  0  0
 20 43  1  0  0  0  0
 20 44  1  0  0  0  0
 20 45  1  0  0  0  0
 21 46  1  0  0  0  0
 21 47  1  0  0  0  0
 21 48  1  0  0  0  0
 22 49  1  0  0  0  0
 28 50  1  0  0  0  0
 29 51  1  0  0  0  0
M  END
> <Molecule Name>
cmp_16

> <mmff94s_NoEstat>
84.86

> <Kd_nM>
8.8

$$$$
cmp_17
  -OEChem-07021816503D

 57 61  0     1  0  0  0  0  0999 V2000
    3.6704   -5.1086    3.4974 C   0  0  0  0  0  0  0  0  0  0  0  0
    4.0453   -4.0275    4.2950 C   0  0  0  0  0  0  0  0  0  0  0  0
   -3.1800    1.3306    1.0983 C   0  0  0  0  0  0  0  0  0  0  0  0
   -2.0724    1.3397    1.9523 C   0  0  0  0  0  0  0  0  0  0  0  0
    2.3247   -5.3203    3.1972 C   0  0  0  0  0  0  0  0  0  0  0  0
   -0.5611    1.0982    0.0694 C   0  0  0  0  0  0  0  0  0  0  0  0
    1.7289   -3.3697    4.4923 C   0  0  0  0  0  0  0  0  0  0  0  0
   -1.6646    1.0903   -0.7703 C   0  0  0  0  0  0  0  0  0  0  0  0
    3.0746   -3.1580    4.7925 C   0  0  0  0  0  0  0  0  0  0  0  0
   -2.9616    1.2047   -0.2658 C   0  0  0  0  0  0  0  0  0  0  0  0
   -0.7720    1.2242    1.4421 C   0  0  0  0  0  0  0  0  0  0  0  0
    1.3540   -4.4508    3.6947 C   0  0  0  0  0  0  0  0  0  0  0  0
    3.8388   -0.1270    4.0331 C   0  0  0  0  0  0  0  0  0  0  0  0
    3.9624    1.4395    2.6408 C   0  0  0  0  0  0  0  0  0  0  0  0
    1.8957    2.6687    1.2474 C   0  0  0  0  0  0  0  0  0  0  0  0
    1.5860    1.6761    2.0971 C   0  0  0  0  0  0  0  0  0  0  0  0
    3.3434    3.0180    1.1344 C   0  0  0  0  0  0  0  0  0  0  0  0
   -5.2746    1.2565   -1.1927 C   0  0  0  0  0  0  0  0  0  0  0  0
   -1.6599    0.9666   -2.2586 C   0  0  0  0  0  0  0  0  0  0  0  0
   -3.1544    1.0223   -2.5929 C   0  0  0  0  0  0  0  0  0  0  0  0
    3.7056    4.1314    0.1833 C   0  0  0  0  0  0  0  0  0  0  0  0
   -6.0392    1.1913   -2.4939 C   0  0  0  0  0  0  0  0  0  0  0  0
    4.1939   -2.4214    6.9381 C   0  0  0  0  0  0  0  0  0  0  0  0
    3.4821   -1.9858    5.6588 C   0  0  1  0  0  0  0  0  0  0  0  0
    4.7250    0.6954    3.4164 N   0  0  0  0  0  0  0  0  0  0  0  0
    2.5622    0.0424    3.7024 N   0  0  0  0  0  0  0  0  0  0  0  0
    4.3100    2.4427    1.7870 N   0  0  0  0  0  0  0  0  0  0  0  0
    2.6270    1.0559    2.7996 N   0  0  0  0  0  0  0  0  0  0  0  0
   -3.8953    1.1690   -1.3224 N   0  0  0  0  0  0  0  0  0  0  0  0
    0.3299    1.2358    2.3241 N   0  0  0  0  0  0  0  0  0  0  0  0
    4.3121   -1.0396    4.9204 N   0  0  0  0  0  0  0  0  0  0  0  0
   -5.8939    1.3787   -0.1356 O   0  0  0  0  0  0  0  0  0  0  0  0
   -0.3062   -4.7131    3.3249 Cl  0  0  0  0  0  0  0  0  0  0  0  0
    4.4265   -5.7855    3.1104 H   0  0  0  0  0  0  0  0  0  0  0  0
    5.0961   -3.8703    4.5239 H   0  0  0  0  0  0  0  0  0  0  0  0
   -4.1703    1.4213    1.5273 H   0  0  0  0  0  0  0  0  0  0  0  0
   -2.2328    1.4372    3.0237 H   0  0  0  0  0  0  0  0  0  0  0  0
    2.0470   -6.1672    2.5746 H   0  0  0  0  0  0  0  0  0  0  0  0
    0.4416    1.0096   -0.3377 H   0  0  0  0  0  0  0  0  0  0  0  0
    0.9759   -2.6886    4.8822 H   0  0  0  0  0  0  0  0  0  0  0  0
    1.1594    3.2057    0.6636 H   0  0  0  0  0  0  0  0  0  0  0  0
   -1.1206    1.7968   -2.7249 H   0  0  0  0  0  0  0  0  0  0  0  0
   -1.2196    0.0168   -2.5777 H   0  0  0  0  0  0  0  0  0  0  0  0
   -3.3863    1.8737   -3.2421 H   0  0  0  0  0  0  0  0  0  0  0  0
   -3.4851    0.1071   -3.0963 H   0  0  0  0  0  0  0  0  0  0  0  0
    3.6853    5.0749    0.7181 H   0  0  0  0  0  0  0  0  0  0  0  0
    2.9881    4.1503   -0.6306 H   0  0  0  0  0  0  0  0  0  0  0  0
    4.6995    3.9501   -0.2127 H   0  0  0  0  0  0  0  0  0  0  0  0
   -6.2743    0.1559   -2.7129 H   0  0  0  0  0  0  0  0  0  0  0  0
   -5.4262    1.6098   -3.2846 H   0  0  0  0  0  0  0  0  0  0  0  0
   -6.9521    1.7683   -2.3955 H   0  0  0  0  0  0  0  0  0  0  0  0
    5.1024   -2.9896    6.7102 H   0  0  0  0  0  0  0  0  0  0  0  0
    4.4807   -1.5478    7.5343 H   0  0  0  0  0  0  0  0  0  0  0  0
    3.5540   -3.0467    7.5707 H   0  0  0  0  0  0  0  0  0  0  0  0
    2.5855   -1.4245    5.9492 H   0  0  0  0  0  0  0  0  0  0  0  0
    0.1553    0.8642    3.2498 H   0  0  0  0  0  0  0  0  0  0  0  0
    5.3213   -1.0897    5.1062 H   0  0  0  0  0  0  0  0  0  0  0  0
  1  2  1  0  0  0  0
  1  5  2  0  0  0  0
  2  9  2  0  0  0  0
  3  4  2  0  0  0  0
  3 10  1  0  0  0  0
  4 11  1  0  0  0  0
  5 12  1  0  0  0  0
  6  8  1  0  0  0  0
  6 11  2  0  0  0  0
  7  9  1  0  0  0  0
  7 12  2  0  0  0  0
  8 10  2  0  0  0  0
  8 19  1  0  0  0  0
  9 24  1  0  0  0  0
 10 29  1  0  0  0  0
 11 30  1  0  0  0  0
 12 33  1  0  0  0  0
 13 25  1  0  0  0  0
 13 26  2  0  0  0  0
 13 31  1  0  0  0  0
 14 25  2  0  0  0  0
 14 27  1  0  0  0  0
 14 28  1  0  0  0  0
 15 16  2  0  0  0  0
 15 17  1  0  0  0  0
 16 28  1  0  0  0  0
 16 30  1  0  0  0  0
 17 21  1  0  0  0  0
 17 27  2  0  0  0  0
 18 22  1  0  0  0  0
 18 29  1  0  0  0  0
 18 32  2  0  0  0  0
 19 20  1  0  0  0  0
 20 29  1  0  0  0  0
 23 24  1  0  0  0  0
 24 31  1  0  0  0  0
 26 28  1  0  0  0  0
  1 34  1  0  0  0  0
  2 35  1  0  0  0  0
  3 36  1  0  0  0  0
  4 37  1  0  0  0  0
  5 38  1  0  0  0  0
  6 39  1  0  0  0  0
  7 40  1  0  0  0  0
 15 41  1  0  0  0  0
 19 42  1  0  0  0  0
 19 43  1  0  0  0  0
 20 44  1  0  0  0  0
 20 45  1  0  0  0  0
 21 46  1  0  0  0  0
 21 47  1  0  0  0  0
 21 48  1  0  0  0  0
 22 49  1  0  0  0  0
 22 50  1  0  0  0  0
 22 51  1  0  0  0  0
 23 52  1  0  0  0  0
 23 53  1  0  0  0  0
 23 54  1  0  0  0  0
 24 55  1  0  0  0  0
 30 56  1  0  0  0  0
 31 57  1  0  0  0  0
M  END
> <Molecule Name>
cmp_17

> <mmff94s_NoEstat>
106.35

> <Kd_nM>
1.2

$$$$
cmp_18
  -OEChem-07021816503D

 53 57  0     1  0  0  0  0  0999 V2000
   -4.6930    2.4853   -3.9593 C   0  0  0  0  0  0  0  0  0  0  0  0
   -4.9293    3.7022   -3.3200 C   0  0  0  0  0  0  0  0  0  0  0  0
   -5.7596    1.7514   -4.4785 C   0  0  0  0  0  0  0  0  0  0  0  0
   -4.6198    4.4848    4.6083 C   0  0  0  0  0  0  0  0  0  0  0  0
   -6.2323    4.1853   -3.1996 C   0  0  0  0  0  0  0  0  0  0  0  0
   -7.0626    2.2345   -4.3581 C   0  0  0  0  0  0  0  0  0  0  0  0
   -4.9361    3.1543    4.3341 C   0  0  0  0  0  0  0  0  0  0  0  0
   -4.3107    5.3575    3.5650 C   0  0  0  0  0  0  0  0  0  0  0  0
   -4.6339    3.5690    1.9732 C   0  0  0  0  0  0  0  0  0  0  0  0
   -7.2990    3.4515   -3.7187 C   0  0  0  0  0  0  0  0  0  0  0  0
   -4.9431    2.6964    3.0166 C   0  0  0  0  0  0  0  0  0  0  0  0
   -4.3177    4.8996    2.2474 C   0  0  0  0  0  0  0  0  0  0  0  0
   -7.7563    1.2741    2.3756 C   0  0  0  0  0  0  0  0  0  0  0  0
   -9.8058    1.3789    1.9324 C   0  0  0  0  0  0  0  0  0  0  0  0
  -11.0307    2.5425   -0.2742 C   0  0  0  0  0  0  0  0  0  0  0  0
   -9.6913    2.5920   -0.1923 C   0  0  0  0  0  0  0  0  0  0  0  0
  -11.7392    1.8561    0.8472 C   0  0  0  0  0  0  0  0  0  0  0  0
   -9.8280    2.9799   -3.4976 C   0  0  0  0  0  0  0  0  0  0  0  0
   -8.6845    3.9640   -3.5902 C   0  0  1  0  0  0  0  0  0  0  0  0
   -9.4504    3.7929   -2.2962 C   0  0  2  0  0  0  0  0  0  0  0  0
  -13.2445    1.7936    0.7676 C   0  0  0  0  0  0  0  0  0  0  0  0
   -4.3200    0.2724    3.3841 C   0  0  0  0  0  0  0  0  0  0  0  0
   -5.2852    1.2522    2.7199 C   0  0  1  0  0  0  0  0  0  0  0  0
   -8.9777    0.9187    2.8486 N   0  0  0  0  0  0  0  0  0  0  0  0
   -7.7499    1.9306    1.2194 N   0  0  0  0  0  0  0  0  0  0  0  0
  -11.1655    1.3115    1.8793 N   0  0  0  0  0  0  0  0  0  0  0  0
   -9.0732    2.0059    0.9197 N   0  0  0  0  0  0  0  0  0  0  0  0
   -6.6586    0.9398    3.1017 N   0  0  0  0  0  0  0  0  0  0  0  0
   -8.8777    3.1816   -1.1379 N   0  0  0  0  0  0  0  0  0  0  0  0
   -3.9351    5.9765    0.9607 Cl  0  0  0  0  0  0  0  0  0  0  0  0
   -3.6784    2.1092   -4.0532 H   0  0  0  0  0  0  0  0  0  0  0  0
   -4.0989    4.2740   -2.9158 H   0  0  0  0  0  0  0  0  0  0  0  0
   -5.5754    0.8037   -4.9762 H   0  0  0  0  0  0  0  0  0  0  0  0
   -4.6143    4.8410    5.6344 H   0  0  0  0  0  0  0  0  0  0  0  0
   -6.4063    5.1341   -2.6992 H   0  0  0  0  0  0  0  0  0  0  0  0
   -7.8868    1.6546   -4.7655 H   0  0  0  0  0  0  0  0  0  0  0  0
   -5.1756    2.4813    5.1533 H   0  0  0  0  0  0  0  0  0  0  0  0
   -4.0658    6.3919    3.7936 H   0  0  0  0  0  0  0  0  0  0  0  0
   -4.6413    3.2072    0.9476 H   0  0  0  0  0  0  0  0  0  0  0  0
  -11.5934    2.9666   -1.0958 H   0  0  0  0  0  0  0  0  0  0  0  0
  -10.7507    3.2322   -4.0072 H   0  0  0  0  0  0  0  0  0  0  0  0
   -9.6042    1.9195   -3.4902 H   0  0  0  0  0  0  0  0  0  0  0  0
   -8.8932    4.8778   -4.1404 H   0  0  0  0  0  0  0  0  0  0  0  0
  -10.1234    4.5979   -2.0199 H   0  0  0  0  0  0  0  0  0  0  0  0
  -13.5342    0.8887    0.2443 H   0  0  0  0  0  0  0  0  0  0  0  0
  -13.6079    2.6647    0.2324 H   0  0  0  0  0  0  0  0  0  0  0  0
  -13.6525    1.7883    1.7730 H   0  0  0  0  0  0  0  0  0  0  0  0
   -4.3243    0.3913    4.4731 H   0  0  0  0  0  0  0  0  0  0  0  0
   -4.6034   -0.7610    3.1545 H   0  0  0  0  0  0  0  0  0  0  0  0
   -3.2909    0.4092    3.0334 H   0  0  0  0  0  0  0  0  0  0  0  0
   -5.2374    1.0866    1.6366 H   0  0  0  0  0  0  0  0  0  0  0  0
   -6.7721    0.4295    3.9862 H   0  0  0  0  0  0  0  0  0  0  0  0
   -7.9098    3.1491   -0.9573 H   0  0  0  0  0  0  0  0  0  0  0  0
  1  2  2  0  0  0  0
  1  3  1  0  0  0  0
  2  5  1  0  0  0  0
  3  6  2  0  0  0  0
  4  7  1  0  0  0  0
  4  8  2  0  0  0  0
  5 10  2  0  0  0  0
  6 10  1  0  0  0  0
  7 11  2  0  0  0  0
  8 12  1  0  0  0  0
  9 11  1  0  0  0  0
  9 12  2  0  0  0  0
 10 19  1  0  0  0  0
 11 23  1  0  0  0  0
 12 30  1  0  0  0  0
 13 24  1  0  0  0  0
 13 25  2  0  0  0  0
 13 28  1  0  0  0  0
 14 24  2  0  0  0  0
 14 26  1  0  0  0  0
 14 27  1  0  0  0  0
 15 16  2  0  0  0  0
 15 17  1  0  0  0  0
 16 27  1  0  0  0  0
 16 29  1  0  0  0  0
 17 21  1  0  0  0  0
 17 26  2  0  0  0  0
 18 19  1  0  0  0  0
 18 20  1  0  0  0  0
 19 20  1  0  0  0  0
 20 29  1  0  0  0  0
 22 23  1  0  0  0  0
 23 28  1  0  0  0  0
 25 27  1  0  0  0  0
  1 31  1  0  0  0  0
  2 32  1  0  0  0  0
  3 33  1  0  0  0  0
  4 34  1  0  0  0  0
  5 35  1  0  0  0  0
  6 36  1  0  0  0  0
  7 37  1  0  0  0  0
  8 38  1  0  0  0  0
  9 39  1  0  0  0  0
 15 40  1  0  0  0  0
 18 41  1  0  0  0  0
 18 42  1  0  0  0  0
 19 43  1  0  0  0  0
 20 44  1  0  0  0  0
 21 45  1  0  0  0  0
 21 46  1  0  0  0  0
 21 47  1  0  0  0  0
 22 48  1  0  0  0  0
 22 49  1  0  0  0  0
 22 50  1  0  0  0  0
 23 51  1  0  0  0  0
 28 52  1  0  0  0  0
 29 53  1  0  0  0  0
M  END
> <Molecule Name>
cmp_18

> <mmff94s_NoEstat>
78.94

> <Kd_nM>
6.1

$$$$
cmp_19
  -OEChem-07021816503D

 55 58  0     1  0  0  0  0  0999 V2000
   -4.6198    4.4848    4.6083 C   0  0  0  0  0  0  0  0  0  0  0  0
   -4.9361    3.1543    4.3341 C   0  0  0  0  0  0  0  0  0  0  0  0
   -4.3107    5.3575    3.5650 C   0  0  0  0  0  0  0  0  0  0  0  0
   -4.6339    3.5690    1.9732 C   0  0  0  0  0  0  0  0  0  0  0  0
   -4.9431    2.6964    3.0166 C   0  0  0  0  0  0  0  0  0  0  0  0
   -7.4428    3.3331   -3.7679 C   0  0  0  0  0  0  0  0  0  0  0  0
   -4.3177    4.8996    2.2474 C   0  0  0  0  0  0  0  0  0  0  0  0
   -6.1151    3.0879   -3.3693 C   0  0  0  0  0  0  0  0  0  0  0  0
   -7.6814    2.4083   -4.7549 C   0  0  0  0  0  0  0  0  0  0  0  0
   -7.7563    1.2741    2.3756 C   0  0  0  0  0  0  0  0  0  0  0  0
   -9.8058    1.3789    1.9324 C   0  0  0  0  0  0  0  0  0  0  0  0
  -11.0307    2.5425   -0.2742 C   0  0  0  0  0  0  0  0  0  0  0  0
   -9.6913    2.5920   -0.1923 C   0  0  0  0  0  0  0  0  0  0  0  0
  -11.7392    1.8561    0.8472 C   0  0  0  0  0  0  0  0  0  0  0  0
   -5.3372    3.7929   -2.3350 C   0  0  0  0  0  0  0  0  0  0  0  0
   -8.8682    2.1271   -5.5803 C   0  0  0  0  0  0  0  0  0  0  0  0
  -13.2445    1.7936    0.7676 C   0  0  0  0  0  0  0  0  0  0  0  0
   -4.3200    0.2724    3.3841 C   0  0  0  0  0  0  0  0  0  0  0  0
   -8.3952    4.3747   -3.2339 C   0  0  0  0  0  0  0  0  0  0  0  0
   -9.4503    3.7921   -2.2967 C   0  0  0  0  0  0  0  0  0  0  0  0
   -5.2852    1.2522    2.7199 C   0  0  1  0  0  0  0  0  0  0  0  0
   -5.5499    2.0857   -4.0476 N   0  0  0  0  0  0  0  0  0  0  0  0
   -8.9777    0.9187    2.8486 N   0  0  0  0  0  0  0  0  0  0  0  0
   -7.7499    1.9306    1.2194 N   0  0  0  0  0  0  0  0  0  0  0  0
  -11.1655    1.3115    1.8793 N   0  0  0  0  0  0  0  0  0  0  0  0
   -6.5272    1.6929   -4.8823 N   0  0  0  0  0  0  0  0  0  0  0  0
   -9.0732    2.0059    0.9197 N   0  0  0  0  0  0  0  0  0  0  0  0
   -6.6586    0.9398    3.1017 N   0  0  0  0  0  0  0  0  0  0  0  0
   -8.8777    3.1816   -1.1379 N   0  0  0  0  0  0  0  0  0  0  0  0
   -3.9351    5.9765    0.9607 Cl  0  0  0  0  0  0  0  0  0  0  0  0
   -4.6143    4.8410    5.6344 H   0  0  0  0  0  0  0  0  0  0  0  0
   -5.1756    2.4813    5.1533 H   0  0  0  0  0  0  0  0  0  0  0  0
   -4.0658    6.3919    3.7936 H   0  0  0  0  0  0  0  0  0  0  0  0
   -4.6413    3.2072    0.9476 H   0  0  0  0  0  0  0  0  0  0  0  0
  -11.5934    2.9666   -1.0958 H   0  0  0  0  0  0  0  0  0  0  0  0
   -5.4617    3.3170   -1.3476 H   0  0  0  0  0  0  0  0  0  0  0  0
   -4.2571    3.8071   -2.5642 H   0  0  0  0  0  0  0  0  0  0  0  0
   -5.6394    4.8505   -2.2357 H   0  0  0  0  0  0  0  0  0  0  0  0
   -8.8578    2.7189   -6.5116 H   0  0  0  0  0  0  0  0  0  0  0  0
   -8.9359    1.0617   -5.8643 H   0  0  0  0  0  0  0  0  0  0  0  0
   -9.8094    2.3583   -5.0500 H   0  0  0  0  0  0  0  0  0  0  0  0
  -13.5342    0.8887    0.2443 H   0  0  0  0  0  0  0  0  0  0  0  0
  -13.6079    2.6647    0.2324 H   0  0  0  0  0  0  0  0  0  0  0  0
  -13.6525    1.7883    1.7730 H   0  0  0  0  0  0  0  0  0  0  0  0
   -4.3243    0.3913    4.4731 H   0  0  0  0  0  0  0  0  0  0  0  0
   -4.6034   -0.7610    3.1545 H   0  0  0  0  0  0  0  0  0  0  0  0
   -3.2909    0.4092    3.0334 H   0  0  0  0  0  0  0  0  0  0  0  0
   -8.8928    4.8594   -4.0834 H   0  0  0  0  0  0  0  0  0  0  0  0
   -7.8316    5.1657   -2.7228 H   0  0  0  0  0  0  0  0  0  0  0  0
  -10.1122    4.5876   -1.9398 H   0  0  0  0  0  0  0  0  0  0  0  0
  -10.0640    3.0370   -2.7988 H   0  0  0  0  0  0  0  0  0  0  0  0
   -5.2374    1.0866    1.6366 H   0  0  0  0  0  0  0  0  0  0  0  0
   -6.3353    0.9278   -5.5172 H   0  0  0  0  0  0  0  0  0  0  0  0
   -6.7721    0.4295    3.9862 H   0  0  0  0  0  0  0  0  0  0  0  0
   -7.9098    3.1497   -0.9570 H   0  0  0  0  0  0  0  0  0  0  0  0
  1  2  1  0  0  0  0
  1  3  2  0  0  0  0
  2  5  2  0  0  0  0
  3  7  1  0  0  0  0
  4  5  1  0  0  0  0
  4  7  2  0  0  0  0
  5 21  1  0  0  0  0
  6  8  1  0  0  0  0
  6  9  2  0  0  0  0
  6 19  1  0  0  0  0
  7 30  1  0  0  0  0
  8 15  1  0  0  0  0
  8 22  2  0  0  0  0
  9 16  1  0  0  0  0
  9 26  1  0  0  0  0
 10 23  1  0  0  0  0
 10 24  2  0  0  0  0
 10 28  1  0  0  0  0
 11 23  2  0  0  0  0
 11 25  1  0  0  0  0
 11 27  1  0  0  0  0
 12 13  2  0  0  0  0
 12 14  1  0  0  0  0
 13 27  1  0  0  0  0
 13 29  1  0  0  0  0
 14 17  1  0  0  0  0
 14 25  2  0  0  0  0
 18 21  1  0  0  0  0
 19 20  1  0  0  0  0
 20 29  1  0  0  0  0
 21 28  1  0  0  0  0
 22 26  1  0  0  0  0
 24 27  1  0  0  0  0
  1 31  1  0  0  0  0
  2 32  1  0  0  0  0
  3 33  1  0  0  0  0
  4 34  1  0  0  0  0
 12 35  1  0  0  0  0
 15 36  1  0  0  0  0
 15 37  1  0  0  0  0
 15 38  1  0  0  0  0
 16 39  1  0  0  0  0
 16 40  1  0  0  0  0
 16 41  1  0  0  0  0
 17 42  1  0  0  0  0
 17 43  1  0  0  0  0
 17 44  1  0  0  0  0
 18 45  1  0  0  0  0
 18 46  1  0  0  0  0
 18 47  1  0  0  0  0
 19 48  1  0  0  0  0
 19 49  1  0  0  0  0
 20 50  1  0  0  0  0
 20 51  1  0  0  0  0
 21 52  1  0  0  0  0
 26 53  1  0  0  0  0
 28 54  1  0  0  0  0
 29 55  1  0  0  0  0
M  END
> <Molecule Name>
cmp_19

> <mmff94s_NoEstat>
59.67

> <Kd_nM>
5.9

$$$$
cmp_20
  -OEChem-07021816503D

 56 59  0     1  0  0  0  0  0999 V2000
   -6.6074    4.6749    6.4094 C   0  0  0  0  0  0  0  0  0  0  0  0
   -8.0939    0.2006    6.4971 C   0  0  0  0  0  0  0  0  0  0  0  0
   -7.3441    1.1383    5.7871 C   0  0  0  0  0  0  0  0  0  0  0  0
   -9.4737    0.3616    6.6228 C   0  0  0  0  0  0  0  0  0  0  0  0
   -9.3540    2.3982    5.3285 C   0  0  0  0  0  0  0  0  0  0  0  0
   -7.9741    2.2371    5.2028 C   0  0  0  0  0  0  0  0  0  0  0  0
  -13.0480    4.7388    0.6651 C   0  0  0  0  0  0  0  0  0  0  0  0
  -10.1038    1.4604    6.0386 C   0  0  0  0  0  0  0  0  0  0  0  0
  -12.7077    5.2691    1.9240 C   0  0  0  0  0  0  0  0  0  0  0  0
  -13.0886    5.8302   -0.1677 C   0  0  0  0  0  0  0  0  0  0  0  0
   -7.2060    2.3228    2.1189 C   0  0  0  0  0  0  0  0  0  0  0  0
   -7.4183    1.5840    0.1652 C   0  0  0  0  0  0  0  0  0  0  0  0
   -9.6962    1.5620   -1.4268 C   0  0  0  0  0  0  0  0  0  0  0  0
   -9.7876    2.0894   -0.1953 C   0  0  0  0  0  0  0  0  0  0  0  0
   -8.3577    1.0312   -1.8237 C   0  0  0  0  0  0  0  0  0  0  0  0
  -12.5270    4.5410    3.1925 C   0  0  0  0  0  0  0  0  0  0  0  0
  -13.3797    5.9669   -1.6049 C   0  0  0  0  0  0  0  0  0  0  0  0
   -8.2412    0.4356   -3.2049 C   0  0  0  0  0  0  0  0  0  0  0  0
   -6.0554    3.9280    5.2681 C   0  0  0  0  0  0  0  0  0  0  0  0
  -13.3091    3.2969    0.3049 C   0  0  0  0  0  0  0  0  0  0  0  0
  -12.1444    2.6488   -0.4396 C   0  0  0  0  0  0  0  0  0  0  0  0
   -7.1582    3.2567    4.4321 C   0  0  1  0  0  0  0  0  0  0  0  0
   -7.0421    5.2653    7.3087 N   0  0  0  0  0  0  0  0  0  0  0  0
  -12.5435    6.5944    1.8979 N   0  0  0  0  0  0  0  0  0  0  0  0
   -6.5160    1.7233    1.1156 N   0  0  0  0  0  0  0  0  0  0  0  0
   -8.4880    2.5747    1.8722 N   0  0  0  0  0  0  0  0  0  0  0  0
   -7.2922    1.0422   -1.0784 N   0  0  0  0  0  0  0  0  0  0  0  0
  -12.7817    6.9060    0.6125 N   0  0  0  0  0  0  0  0  0  0  0  0
   -8.6401    2.1008    0.6078 N   0  0  0  0  0  0  0  0  0  0  0  0
   -6.5501    2.6136    3.2718 N   0  0  0  0  0  0  0  0  0  0  0  0
  -10.9425    2.6280    0.3339 N   0  0  0  0  0  0  0  0  0  0  0  0
  -11.8060    1.6592    6.1950 Cl  0  0  0  0  0  0  0  0  0  0  0  0
   -7.6029   -0.6548    6.9520 H   0  0  0  0  0  0  0  0  0  0  0  0
   -6.2694    1.0049    5.6943 H   0  0  0  0  0  0  0  0  0  0  0  0
  -10.0454   -0.3770    7.1793 H   0  0  0  0  0  0  0  0  0  0  0  0
   -9.8406    3.2563    4.8707 H   0  0  0  0  0  0  0  0  0  0  0  0
  -10.5287    1.5113   -2.1165 H   0  0  0  0  0  0  0  0  0  0  0  0
  -11.4809    4.2154    3.3209 H   0  0  0  0  0  0  0  0  0  0  0  0
  -12.7936    5.1585    4.0683 H   0  0  0  0  0  0  0  0  0  0  0  0
  -13.1655    3.6418    3.2506 H   0  0  0  0  0  0  0  0  0  0  0  0
  -14.4566    6.1304   -1.7817 H   0  0  0  0  0  0  0  0  0  0  0  0
  -12.8357    6.8127   -2.0621 H   0  0  0  0  0  0  0  0  0  0  0  0
  -13.0809    5.0709   -2.1780 H   0  0  0  0  0  0  0  0  0  0  0  0
   -7.9604    1.2156   -3.9044 H   0  0  0  0  0  0  0  0  0  0  0  0
   -9.1975    0.0086   -3.4889 H   0  0  0  0  0  0  0  0  0  0  0  0
   -7.4850   -0.3424   -3.1926 H   0  0  0  0  0  0  0  0  0  0  0  0
   -5.4425    4.5973    4.6525 H   0  0  0  0  0  0  0  0  0  0  0  0
   -5.3722    3.1590    5.6512 H   0  0  0  0  0  0  0  0  0  0  0  0
  -14.2094    3.2521   -0.3210 H   0  0  0  0  0  0  0  0  0  0  0  0
  -13.5431    2.7244    1.2115 H   0  0  0  0  0  0  0  0  0  0  0  0
  -12.3859    1.6076   -0.6757 H   0  0  0  0  0  0  0  0  0  0  0  0
  -11.9247    3.1694   -1.3775 H   0  0  0  0  0  0  0  0  0  0  0  0
   -7.8284    4.0389    4.0524 H   0  0  0  0  0  0  0  0  0  0  0  0
  -12.7192    7.8782    0.3363 H   0  0  0  0  0  0  0  0  0  0  0  0
   -5.5545    2.3768    3.3621 H   0  0  0  0  0  0  0  0  0  0  0  0
  -10.8747    2.9820    1.2508 H   0  0  0  0  0  0  0  0  0  0  0  0
  1 19  1  0  0  0  0
  1 23  3  0  0  0  0
  2  3  2  0  0  0  0
  2  4  1  0  0  0  0
  3  6  1  0  0  0  0
  4  8  2  0  0  0  0
  5  6  2  0  0  0  0
  5  8  1  0  0  0  0
  6 22  1  0  0  0  0
  7  9  1  0  0  0  0
  7 10  2  0  0  0  0
  7 20  1  0  0  0  0
  8 32  1  0  0  0  0
  9 16  1  0  0  0  0
  9 24  2  0  0  0  0
 10 17  1  0  0  0  0
 10 28  1  0  0  0  0
 11 25  1  0  0  0  0
 11 26  2  0  0  0  0
 11 30  1  0  0  0  0
 12 25  2  0  0  0  0
 12 27  1  0  0  0  0
 12 29  1  0  0  0  0
 13 14  2  0  0  0  0
 13 15  1  0  0  0  0
 14 29  1  0  0  0  0
 14 31  1  0  0  0  0
 15 18  1  0  0  0  0
 15 27  2  0  0  0  0
 19 22  1  0  0  0  0
 20 21  1  0  0  0  0
 21 31  1  0  0  0  0
 22 30  1  0  0  0  0
 24 28  1  0  0  0  0
 26 29  1  0  0  0  0
  2 33  1  0  0  0  0
  3 34  1  0  0  0  0
  4 35  1  0  0  0  0
  5 36  1  0  0  0  0
 13 37  1  0  0  0  0
 16 38  1  0  0  0  0
 16 39  1  0  0  0  0
 16 40  1  0  0  0  0
 17 41  1  0  0  0  0
 17 42  1  0  0  0  0
 17 43  1  0  0  0  0
 18 44  1  0  0  0  0
 18 45  1  0  0  0  0
 18 46  1  0  0  0  0
 19 47  1  0  0  0  0
 19 48  1  0  0  0  0
 20 49  1  0  0  0  0
 20 50  1  0  0  0  0
 21 51  1  0  0  0  0
 21 52  1  0  0  0  0
 22 53  1  0  0  0  0
 28 54  1  0  0  0  0
 30 55  1  0  0  0  0
 31 56  1  0  0  0  0
M  END
> <Molecule Name>
cmp_20

> <mmff94s_NoEstat>
61.99

> <Kd_nM>
1.1

$$$$
cmp_21
  -OEChem-07021816503D

 53 56  0     1  0  0  0  0  0999 V2000
    3.9833   -5.9962    0.4137 C   0  0  0  0  0  0  0  0  0  0  0  0
    5.0807   -3.5562   -3.4694 C   0  0  0  0  0  0  0  0  0  0  0  0
    4.8149   -3.4642   -2.1032 C   0  0  0  0  0  0  0  0  0  0  0  0
    4.0757   -3.9560   -4.3502 C   0  0  0  0  0  0  0  0  0  0  0  0
    2.5389   -4.1719   -2.4985 C   0  0  0  0  0  0  0  0  0  0  0  0
    3.5440   -3.7720   -1.6178 C   0  0  0  0  0  0  0  0  0  0  0  0
    2.8048   -4.2638   -3.8647 C   0  0  0  0  0  0  0  0  0  0  0  0
    2.4903   -1.3091    0.0945 C   0  0  0  0  0  0  0  0  0  0  0  0
    1.6962    0.6315    0.2011 C   0  0  0  0  0  0  0  0  0  0  0  0
   -0.7399    1.5484   -0.7727 C   0  0  0  0  0  0  0  0  0  0  0  0
   -0.4307    0.2543   -0.9535 C   0  0  0  0  0  0  0  0  0  0  0  0
    0.2731    2.3787   -0.0549 C   0  0  0  0  0  0  0  0  0  0  0  0
   -2.5681   -0.9234   -1.0640 C   0  0  0  0  0  0  0  0  0  0  0  0
   -0.7686   -1.3472   -2.7669 C   0  0  0  0  0  0  0  0  0  0  0  0
   -3.5599   -0.7815   -2.2148 C   0  0  0  0  0  0  0  0  0  0  0  0
   -1.8257   -1.1889   -3.8558 C   0  0  0  0  0  0  0  0  0  0  0  0
   -0.0618    3.8347    0.1548 C   0  0  0  0  0  0  0  0  0  0  0  0
   -4.1424   -1.5034   -4.4385 C   0  0  0  0  0  0  0  0  0  0  0  0
    4.1552   -4.5705    0.7347 C   0  0  0  0  0  0  0  0  0  0  0  0
    3.2560   -3.6730   -0.1323 C   0  0  1  0  0  0  0  0  0  0  0  0
    3.8471   -7.1207    0.1623 N   0  0  0  0  0  0  0  0  0  0  0  0
    2.7616   -0.0604    0.5518 N   0  0  0  0  0  0  0  0  0  0  0  0
    1.3235   -1.4599   -0.5249 N   0  0  0  0  0  0  0  0  0  0  0  0
    1.4126    1.9489    0.4008 N   0  0  0  0  0  0  0  0  0  0  0  0
    0.7970   -0.2087   -0.4632 N   0  0  0  0  0  0  0  0  0  0  0  0
   -1.2159   -0.6208   -1.5654 N   0  0  0  0  0  0  0  0  0  0  0  0
   -3.1511   -1.6003   -3.3670 N   0  3  0  0  0  0  0  0  0  0  0  0
    3.4094   -2.2875    0.2996 N   0  0  0  0  0  0  0  0  0  0  0  0
    1.5655   -4.7582   -4.9517 Cl  0  0  0  0  0  0  0  0  0  0  0  0
    6.0706   -3.3165   -3.8470 H   0  0  0  0  0  0  0  0  0  0  0  0
    5.6040   -3.1519   -1.4242 H   0  0  0  0  0  0  0  0  0  0  0  0
    4.2973   -4.0235   -5.4124 H   0  0  0  0  0  0  0  0  0  0  0  0
    1.5495   -4.4103   -2.1151 H   0  0  0  0  0  0  0  0  0  0  0  0
   -1.6648    1.9936   -1.1159 H   0  0  0  0  0  0  0  0  0  0  0  0
   -2.8540   -0.2370   -0.2581 H   0  0  0  0  0  0  0  0  0  0  0  0
   -2.5855   -1.9426   -0.6587 H   0  0  0  0  0  0  0  0  0  0  0  0
   -0.6210   -2.4052   -2.5179 H   0  0  0  0  0  0  0  0  0  0  0  0
    0.1863   -0.9529   -3.1349 H   0  0  0  0  0  0  0  0  0  0  0  0
   -4.5469   -1.1016   -1.8594 H   0  0  0  0  0  0  0  0  0  0  0  0
   -3.6430    0.2750   -2.5037 H   0  0  0  0  0  0  0  0  0  0  0  0
   -1.8490   -0.1463   -4.2010 H   0  0  0  0  0  0  0  0  0  0  0  0
   -1.5329   -1.8101   -4.7109 H   0  0  0  0  0  0  0  0  0  0  0  0
   -0.5848    3.9454    1.0987 H   0  0  0  0  0  0  0  0  0  0  0  0
   -0.6913    4.1750   -0.6608 H   0  0  0  0  0  0  0  0  0  0  0  0
    0.8574    4.4111    0.1696 H   0  0  0  0  0  0  0  0  0  0  0  0
   -3.8341   -2.1133   -5.2917 H   0  0  0  0  0  0  0  0  0  0  0  0
   -4.2443   -0.4654   -4.7665 H   0  0  0  0  0  0  0  0  0  0  0  0
   -5.1153   -1.8569   -4.0865 H   0  0  0  0  0  0  0  0  0  0  0  0
    3.9661   -4.4086    1.8027 H   0  0  0  0  0  0  0  0  0  0  0  0
    5.2058   -4.2991    0.5689 H   0  0  0  0  0  0  0  0  0  0  0  0
    2.2102   -3.9530    0.0495 H   0  0  0  0  0  0  0  0  0  0  0  0
    4.2837   -2.0665    0.7919 H   0  0  0  0  0  0  0  0  0  0  0  0
   -3.0959   -2.5541   -3.0718 H   0  0  0  0  0  0  0  0  0  0  0  0
  1 19  1  0  0  0  0
  1 21  3  0  0  0  0
  2  3  1  0  0  0  0
  2  4  2  0  0  0  0
  3  6  2  0  0  0  0
  4  7  1  0  0  0  0
  5  6  1  0  0  0  0
  5  7  2  0  0  0  0
  6 20  1  0  0  0  0
  7 29  1  0  0  0  0
  8 22  1  0  0  0  0
  8 23  2  0  0  0  0
  8 28  1  0  0  0  0
  9 22  2  0  0  0  0
  9 24  1  0  0  0  0
  9 25  1  0  0  0  0
 10 11  2  0  0  0  0
 10 12  1  0  0  0  0
 11 25  1  0  0  0  0
 11 26  1  0  0  0  0
 12 17  1  0  0  0  0
 12 24  2  0  0  0  0
 13 15  1  0  0  0  0
 13 26  1  0  0  0  0
 14 16  1  0  0  0  0
 14 26  1  0  0  0  0
 15 27  1  0  0  0  0
 16 27  1  0  0  0  0
 18 27  1  0  0  0  0
 19 20  1  0  0  0  0
 20 28  1  0  0  0  0
 23 25  1  0  0  0  0
  2 30  1  0  0  0  0
  3 31  1  0  0  0  0
  4 32  1  0  0  0  0
  5 33  1  0  0  0  0
 10 34  1  0  0  0  0
 13 35  1  0  0  0  0
 13 36  1  0  0  0  0
 14 37  1  0  0  0  0
 14 38  1  0  0  0  0
 15 39  1  0  0  0  0
 15 40  1  0  0  0  0
 16 41  1  0  0  0  0
 16 42  1  0  0  0  0
 17 43  1  0  0  0  0
 17 44  1  0  0  0  0
 17 45  1  0  0  0  0
 18 46  1  0  0  0  0
 18 47  1  0  0  0  0
 18 48  1  0  0  0  0
 19 49  1  0  0  0  0
 19 50  1  0  0  0  0
 20 51  1  0  0  0  0
 28 52  1  0  0  0  0
 27 53  1  0  0  0  0
M  CHG  1  27   1
M  END
> <Molecule Name>
cmp_21

> <mmff94s_NoEstat>
74.42

> <Kd_nM>
3.9

$$$$
cmp_22
  -OEChem-07021816503D

 53 56  0     1  0  0  0  0  0999 V2000
    6.8659   -4.1203   -2.5371 C   0  0  0  0  0  0  0  0  0  0  0  0
    2.9702   -5.1899   -4.9694 C   0  0  0  0  0  0  0  0  0  0  0  0
    3.8897   -4.1828   -4.6762 C   0  0  0  0  0  0  0  0  0  0  0  0
    2.1365   -5.6864   -3.9674 C   0  0  0  0  0  0  0  0  0  0  0  0
    3.1419   -4.1689   -2.3789 C   0  0  0  0  0  0  0  0  0  0  0  0
    3.9756   -3.6724   -3.3810 C   0  0  0  0  0  0  0  0  0  0  0  0
    2.2224   -5.1760   -2.6721 C   0  0  0  0  0  0  0  0  0  0  0  0
    3.6525   -0.5123   -3.5147 C   0  0  0  0  0  0  0  0  0  0  0  0
    2.4451    1.1894   -3.7474 C   0  0  0  0  0  0  0  0  0  0  0  0
    0.3468    2.0423   -2.1371 C   0  0  0  0  0  0  0  0  0  0  0  0
    0.9884    0.9125   -1.7980 C   0  0  0  0  0  0  0  0  0  0  0  0
    0.8330    2.7383   -3.3659 C   0  0  0  0  0  0  0  0  0  0  0  0
   -0.3642    0.4454    0.2298 C   0  0  0  0  0  0  0  0  0  0  0  0
    0.3743   -1.2463   -0.7390 C   0  0  0  0  0  0  0  0  0  0  0  0
   -0.2653   -1.0309    0.6401 C   0  0  0  0  0  0  0  0  0  0  0  0
    0.1207    4.0090   -3.7583 C   0  0  0  0  0  0  0  0  0  0  0  0
   -2.2881   -1.2797    1.9045 C   0  0  0  0  0  0  0  0  0  0  0  0
   -1.5031   -3.0818    0.5228 C   0  0  0  0  0  0  0  0  0  0  0  0
    6.4357   -2.9709   -3.3488 C   0  0  0  0  0  0  0  0  0  0  0  0
    4.9763   -2.5784   -3.0627 C   0  0  1  0  0  0  0  0  0  0  0  0
    7.2064   -5.0257   -1.8962 N   0  0  0  0  0  0  0  0  0  0  0  0
    3.4555    0.5641   -4.3175 N   0  0  0  0  0  0  0  0  0  0  0  0
    2.8351   -0.6158   -2.4712 N   0  0  0  0  0  0  0  0  0  0  0  0
    1.8152    2.3389   -4.1187 N   0  0  0  0  0  0  0  0  0  0  0  0
    2.0460    0.4818   -2.6091 N   0  0  0  0  0  0  0  0  0  0  0  0
    0.6817    0.1577   -0.7133 N   0  0  0  0  0  0  0  0  0  0  0  0
    4.6466   -1.3819   -3.8303 N   0  0  0  0  0  0  0  0  0  0  0  0
   -1.5941   -1.6292    0.6657 N   0  3  0  0  0  0  0  0  0  0  0  0
    1.1943   -5.7898   -1.4359 Cl  0  0  0  0  0  0  0  0  0  0  0  0
    2.9038   -5.5872   -5.9781 H   0  0  0  0  0  0  0  0  0  0  0  0
    4.5354   -3.8020   -5.4632 H   0  0  0  0  0  0  0  0  0  0  0  0
    1.4248   -6.4716   -4.2103 H   0  0  0  0  0  0  0  0  0  0  0  0
    3.2124   -3.7672   -1.3707 H   0  0  0  0  0  0  0  0  0  0  0  0
   -0.4796    2.4512   -1.5703 H   0  0  0  0  0  0  0  0  0  0  0  0
   -1.2853    0.7851   -0.2430 H   0  0  0  0  0  0  0  0  0  0  0  0
   -0.0495    1.1512    1.0019 H   0  0  0  0  0  0  0  0  0  0  0  0
    1.2699   -1.8716   -0.7289 H   0  0  0  0  0  0  0  0  0  0  0  0
   -0.2757   -1.5267   -1.5675 H   0  0  0  0  0  0  0  0  0  0  0  0
    0.3663   -1.2540    1.5098 H   0  0  0  0  0  0  0  0  0  0  0  0
    0.6109    4.8514   -3.2821 H   0  0  0  0  0  0  0  0  0  0  0  0
   -0.9136    3.9500   -3.4354 H   0  0  0  0  0  0  0  0  0  0  0  0
    0.1590    4.1180   -4.8372 H   0  0  0  0  0  0  0  0  0  0  0  0
   -3.2835   -1.7311    1.9177 H   0  0  0  0  0  0  0  0  0  0  0  0
   -2.3927   -0.1944    1.9859 H   0  0  0  0  0  0  0  0  0  0  0  0
   -1.7253   -1.6433    2.7685 H   0  0  0  0  0  0  0  0  0  0  0  0
   -2.5024   -3.5246    0.5427 H   0  0  0  0  0  0  0  0  0  0  0  0
   -0.9140   -3.5059    1.3404 H   0  0  0  0  0  0  0  0  0  0  0  0
   -1.0230   -3.3390   -0.4252 H   0  0  0  0  0  0  0  0  0  0  0  0
    7.1145   -2.1264   -3.1793 H   0  0  0  0  0  0  0  0  0  0  0  0
    6.5389   -3.2339   -4.4095 H   0  0  0  0  0  0  0  0  0  0  0  0
    4.8917   -2.3132   -2.0008 H   0  0  0  0  0  0  0  0  0  0  0  0
    5.2248   -1.2105   -4.6621 H   0  0  0  0  0  0  0  0  0  0  0  0
   -2.1199   -1.2678   -0.1043 H   0  0  0  0  0  0  0  0  0  0  0  0
  1 19  1  0  0  0  0
  1 21  3  0  0  0  0
  2  3  2  0  0  0  0
  2  4  1  0  0  0  0
  3  6  1  0  0  0  0
  4  7  2  0  0  0  0
  5  6  2  0  0  0  0
  5  7  1  0  0  0  0
  6 20  1  0  0  0  0
  7 29  1  0  0  0  0
  8 22  1  0  0  0  0
  8 23  2  0  0  0  0
  8 27  1  0  0  0  0
  9 22  2  0  0  0  0
  9 24  1  0  0  0  0
  9 25  1  0  0  0  0
 10 11  2  0  0  0  0
 10 12  1  0  0  0  0
 11 25  1  0  0  0  0
 11 26  1  0  0  0  0
 12 16  1  0  0  0  0
 12 24  2  0  0  0  0
 13 15  1  0  0  0  0
 13 26  1  0  0  0  0
 14 15  1  0  0  0  0
 14 26  1  0  0  0  0
 15 28  1  0  0  0  0
 17 28  1  0  0  0  0
 18 28  1  0  0  0  0
 19 20  1  0  0  0  0
 20 27  1  0  0  0  0
 23 25  1  0  0  0  0
  2 30  1  0  0  0  0
  3 31  1  0  0  0  0
  4 32  1  0  0  0  0
  5 33  1  0  0  0  0
 10 34  1  0  0  0  0
 13 35  1  0  0  0  0
 13 36  1  0  0  0  0
 14 37  1  0  0  0  0
 14 38  1  0  0  0  0
 15 39  1  0  0  0  0
 16 40  1  0  0  0  0
 16 41  1  0  0  0  0
 16 42  1  0  0  0  0
 17 43  1  0  0  0  0
 17 44  1  0  0  0  0
 17 45  1  0  0  0  0
 18 46  1  0  0  0  0
 18 47  1  0  0  0  0
 18 48  1  0  0  0  0
 19 49  1  0  0  0  0
 19 50  1  0  0  0  0
 20 51  1  0  0  0  0
 27 52  1  0  0  0  0
 28 53  1  0  0  0  0
M  CHG  1  28   1
M  END
> <Molecule Name>
cmp_22

> <mmff94s_NoEstat>
84.83

> <Kd_nM>
21

$$$$
cmp_23
  -OEChem-07021816503D

 54 57  0     1  0  0  0  0  0999 V2000
   -7.6111   -1.5496    4.5553 C   0  0  0  0  0  0  0  0  0  0  0  0
  -15.4308    8.1710    0.1974 C   0  0  0  0  0  0  0  0  0  0  0  0
  -15.0443    7.3701   -0.8771 C   0  0  0  0  0  0  0  0  0  0  0  0
  -15.1632    7.7621    1.5039 C   0  0  0  0  0  0  0  0  0  0  0  0
  -10.4007    0.3658    7.8395 C   0  0  0  0  0  0  0  0  0  0  0  0
  -14.3902    6.1601   -0.6453 C   0  0  0  0  0  0  0  0  0  0  0  0
  -14.5091    6.5521    1.7357 C   0  0  0  0  0  0  0  0  0  0  0  0
  -10.3391   -0.5531    6.7919 C   0  0  0  0  0  0  0  0  0  0  0  0
  -10.2494    1.7283    7.5819 C   0  0  0  0  0  0  0  0  0  0  0  0
   -9.9748    1.2530    5.2291 C   0  0  0  0  0  0  0  0  0  0  0  0
  -14.1226    5.7511    0.6612 C   0  0  0  0  0  0  0  0  0  0  0  0
  -10.1261   -0.1095    5.4868 C   0  0  0  0  0  0  0  0  0  0  0  0
  -10.0364    2.1719    6.2767 C   0  0  0  0  0  0  0  0  0  0  0  0
  -12.4453   -1.2539    3.6374 C   0  0  0  0  0  0  0  0  0  0  0  0
  -14.4361   -1.2111    2.9720 C   0  0  0  0  0  0  0  0  0  0  0  0
  -15.7669    0.8461    1.6603 C   0  0  0  0  0  0  0  0  0  0  0  0
  -14.4810    1.0356    1.9977 C   0  0  0  0  0  0  0  0  0  0  0  0
  -16.3626   -0.4727    2.0302 C   0  0  0  0  0  0  0  0  0  0  0  0
  -17.8068   -0.6986    1.6571 C   0  0  0  0  0  0  0  0  0  0  0  0
   -8.9486   -2.1616    4.5134 C   0  0  0  0  0  0  0  0  0  0  0  0
  -14.4014    3.2789    1.0552 C   0  0  0  0  0  0  0  0  0  0  0  0
  -10.0581   -1.1092    4.3486 C   0  0  1  0  0  0  0  0  0  0  0  0
  -13.4140    4.4400    0.9132 C   0  0  1  0  0  0  0  0  0  0  0  0
   -6.5560   -1.0679    4.5869 N   0  0  0  0  0  0  0  0  0  0  0  0
  -13.5782   -1.9996    3.5878 N   0  0  0  0  0  0  0  0  0  0  0  0
  -12.5233   -0.0425    3.0951 N   0  0  0  0  0  0  0  0  0  0  0  0
  -15.7392   -1.4350    2.6436 N   0  0  0  0  0  0  0  0  0  0  0  0
  -13.8096   -0.0006    2.6589 N   0  0  0  0  0  0  0  0  0  0  0  0
  -11.3433   -1.7890    4.2233 N   0  0  0  0  0  0  0  0  0  0  0  0
  -13.7712    2.1885    1.7313 N   0  0  0  0  0  0  0  0  0  0  0  0
  -12.5274    4.1893   -0.1777 O   0  0  0  0  0  0  0  0  0  0  0  0
   -9.8486    3.8530    5.9597 Cl  0  0  0  0  0  0  0  0  0  0  0  0
  -15.9389    9.1138    0.0166 H   0  0  0  0  0  0  0  0  0  0  0  0
  -15.2516    7.6889   -1.8945 H   0  0  0  0  0  0  0  0  0  0  0  0
  -15.4630    8.3859    2.3407 H   0  0  0  0  0  0  0  0  0  0  0  0
  -10.5665    0.0200    8.8557 H   0  0  0  0  0  0  0  0  0  0  0  0
  -14.0929    5.5424   -1.4887 H   0  0  0  0  0  0  0  0  0  0  0  0
  -14.3048    6.2415    2.7570 H   0  0  0  0  0  0  0  0  0  0  0  0
  -10.4580   -1.6129    7.0019 H   0  0  0  0  0  0  0  0  0  0  0  0
  -10.2994    2.4331    8.4083 H   0  0  0  0  0  0  0  0  0  0  0  0
   -9.8094    1.5939    4.2097 H   0  0  0  0  0  0  0  0  0  0  0  0
  -16.3640    1.5889    1.1474 H   0  0  0  0  0  0  0  0  0  0  0  0
  -17.8521   -1.1377    0.6662 H   0  0  0  0  0  0  0  0  0  0  0  0
  -18.3285    0.2528    1.6660 H   0  0  0  0  0  0  0  0  0  0  0  0
  -18.2593   -1.3681    2.3812 H   0  0  0  0  0  0  0  0  0  0  0  0
   -8.9866   -2.9076    3.7104 H   0  0  0  0  0  0  0  0  0  0  0  0
   -9.1095   -2.7145    5.4479 H   0  0  0  0  0  0  0  0  0  0  0  0
  -14.7387    2.9311    0.0726 H   0  0  0  0  0  0  0  0  0  0  0  0
  -15.2844    3.5790    1.6300 H   0  0  0  0  0  0  0  0  0  0  0  0
   -9.8859   -0.5700    3.4079 H   0  0  0  0  0  0  0  0  0  0  0  0
  -12.7925    4.5227    1.8134 H   0  0  0  0  0  0  0  0  0  0  0  0
  -11.3873   -2.7382    4.6139 H   0  0  0  0  0  0  0  0  0  0  0  0
  -12.8335    2.1991    2.0332 H   0  0  0  0  0  0  0  0  0  0  0  0
  -12.0906    3.3457    0.0132 H   0  0  0  0  0  0  0  0  0  0  0  0
  1 20  1  0  0  0  0
  1 24  3  0  0  0  0
  2  3  2  0  0  0  0
  2  4  1  0  0  0  0
  3  6  1  0  0  0  0
  4  7  2  0  0  0  0
  5  8  2  0  0  0  0
  5  9  1  0  0  0  0
  6 11  2  0  0  0  0
  7 11  1  0  0  0  0
  8 12  1  0  0  0  0
  9 13  2  0  0  0  0
 10 12  2  0  0  0  0
 10 13  1  0  0  0  0
 11 23  1  0  0  0  0
 12 22  1  0  0  0  0
 13 32  1  0  0  0  0
 14 25  1  0  0  0  0
 14 26  2  0  0  0  0
 14 29  1  0  0  0  0
 15 25  2  0  0  0  0
 15 27  1  0  0  0  0
 15 28  1  0  0  0  0
 16 17  2  0  0  0  0
 16 18  1  0  0  0  0
 17 28  1  0  0  0  0
 17 30  1  0  0  0  0
 18 19  1  0  0  0  0
 18 27  2  0  0  0  0
 20 22  1  0  0  0  0
 21 23  1  0  0  0  0
 21 30  1  0  0  0  0
 22 29  1  0  0  0  0
 23 31  1  0  0  0  0
 26 28  1  0  0  0  0
  2 33  1  0  0  0  0
  3 34  1  0  0  0  0
  4 35  1  0  0  0  0
  5 36  1  0  0  0  0
  6 37  1  0  0  0  0
  7 38  1  0  0  0  0
  8 39  1  0  0  0  0
  9 40  1  0  0  0  0
 10 41  1  0  0  0  0
 16 42  1  0  0  0  0
 19 43  1  0  0  0  0
 19 44  1  0  0  0  0
 19 45  1  0  0  0  0
 20 46  1  0  0  0  0
 20 47  1  0  0  0  0
 21 48  1  0  0  0  0
 21 49  1  0  0  0  0
 22 50  1  0  0  0  0
 23 51  1  0  0  0  0
 29 52  1  0  0  0  0
 30 53  1  0  0  0  0
 31 54  1  0  0  0  0
M  END
> <Molecule Name>
cmp_23

> <mmff94s_NoEstat>
79.35

> <Kd_nM>
5.5

$$$$
cmp_24
  -OEChem-07021816513D

 53 56  0     1  0  0  0  0  0999 V2000
  -14.3019    9.7539    4.7448 C   0  0  0  0  0  0  0  0  0  0  0  0
  -16.4915    9.6974    0.5128 C   0  0  0  0  0  0  0  0  0  0  0  0
  -15.4874    9.0968    1.2721 C   0  0  0  0  0  0  0  0  0  0  0  0
  -17.8190    9.6334    0.9364 C   0  0  0  0  0  0  0  0  0  0  0  0
  -14.3387    7.3191   -4.3518 C   0  0  0  0  0  0  0  0  0  0  0  0
  -17.1382    8.3680    2.8786 C   0  0  0  0  0  0  0  0  0  0  0  0
  -15.1460    8.4343   -4.3041 C   0  0  0  0  0  0  0  0  0  0  0  0
  -13.0623    8.7473   -3.0353 C   0  0  0  0  0  0  0  0  0  0  0  0
  -15.8107    8.4320    2.4550 C   0  0  0  0  0  0  0  0  0  0  0  0
  -13.1317    7.5003   -3.6167 C   0  0  0  0  0  0  0  0  0  0  0  0
  -18.1423    8.9686    2.1193 C   0  0  0  0  0  0  0  0  0  0  0  0
  -14.6476    5.4762    2.3196 C   0  0  0  0  0  0  0  0  0  0  0  0
  -14.5142    3.6106    1.3658 C   0  0  0  0  0  0  0  0  0  0  0  0
  -13.5364    3.0433   -1.1730 C   0  0  0  0  0  0  0  0  0  0  0  0
  -13.5277    4.3212   -0.7605 C   0  0  0  0  0  0  0  0  0  0  0  0
  -14.0797    2.0389   -0.2104 C   0  0  0  0  0  0  0  0  0  0  0  0
  -14.0954    0.5994   -0.6615 C   0  0  0  0  0  0  0  0  0  0  0  0
  -14.6199    8.3175    4.7164 C   0  0  0  0  0  0  0  0  0  0  0  0
  -12.5401    5.1458   -2.8272 C   0  0  0  0  0  0  0  0  0  0  0  0
  -14.7187    7.7783    3.2793 C   0  0  1  0  0  0  0  0  0  0  0  0
  -12.0495    6.4420   -3.4911 C   0  0  1  0  0  0  0  0  0  0  0  0
  -14.0497   10.8862    4.7679 N   0  0  0  0  0  0  0  0  0  0  0  0
  -14.9090    4.1565    2.4985 N   0  0  0  0  0  0  0  0  0  0  0  0
  -14.1131    5.8087    1.1485 N   0  0  0  0  0  0  0  0  0  0  0  0
  -14.5368    2.3050    0.9776 N   0  0  0  0  0  0  0  0  0  0  0  0
  -14.0205    4.6080    0.5189 N   0  0  0  0  0  0  0  0  0  0  0  0
  -11.4666    6.1327   -4.8023 N   0  3  0  0  0  0  0  0  0  0  0  0
  -14.9445    6.3373    3.3268 N   0  0  0  0  0  0  0  0  0  0  0  0
  -13.0593    5.3767   -1.5156 N   0  0  0  0  0  0  0  0  0  0  0  0
  -14.4485    9.6931   -3.3760 S   0  0  0  0  0  0  0  0  0  0  0  0
  -19.7805    8.8890    2.6408 Cl  0  0  0  0  0  0  0  0  0  0  0  0
  -16.2394   10.2148   -0.4084 H   0  0  0  0  0  0  0  0  0  0  0  0
  -14.4558    9.1515    0.9344 H   0  0  0  0  0  0  0  0  0  0  0  0
  -18.5913   10.1058    0.3343 H   0  0  0  0  0  0  0  0  0  0  0  0
  -14.6052    6.4183   -4.8901 H   0  0  0  0  0  0  0  0  0  0  0  0
  -17.3851    7.8489    3.8019 H   0  0  0  0  0  0  0  0  0  0  0  0
  -16.1116    8.5704   -4.7703 H   0  0  0  0  0  0  0  0  0  0  0  0
  -12.2654    9.1525   -2.4272 H   0  0  0  0  0  0  0  0  0  0  0  0
  -13.1752    2.7281   -2.1434 H   0  0  0  0  0  0  0  0  0  0  0  0
  -13.1606    0.1287   -0.3763 H   0  0  0  0  0  0  0  0  0  0  0  0
  -14.2138    0.5667   -1.7396 H   0  0  0  0  0  0  0  0  0  0  0  0
  -14.9279    0.0889   -0.1887 H   0  0  0  0  0  0  0  0  0  0  0  0
  -13.8726    7.7639    5.2976 H   0  0  0  0  0  0  0  0  0  0  0  0
  -15.5781    8.1614    5.2287 H   0  0  0  0  0  0  0  0  0  0  0  0
  -13.3556    4.7003   -3.4083 H   0  0  0  0  0  0  0  0  0  0  0  0
  -11.7482    4.3946   -2.7379 H   0  0  0  0  0  0  0  0  0  0  0  0
  -13.7521    7.9366    2.7836 H   0  0  0  0  0  0  0  0  0  0  0  0
  -11.2392    6.8498   -2.8727 H   0  0  0  0  0  0  0  0  0  0  0  0
  -12.0333    5.4234   -5.2214 H   0  0  0  0  0  0  0  0  0  0  0  0
  -10.5302    5.8003   -4.6903 H   0  0  0  0  0  0  0  0  0  0  0  0
  -15.3571    5.9774    4.1961 H   0  0  0  0  0  0  0  0  0  0  0  0
  -13.1101    6.2662   -1.0950 H   0  0  0  0  0  0  0  0  0  0  0  0
  -11.4633    6.9514   -5.3766 H   0  0  0  0  0  0  0  0  0  0  0  0
  1 18  1  0  0  0  0
  1 22  3  0  0  0  0
  2  3  1  0  0  0  0
  2  4  2  0  0  0  0
  3  9  2  0  0  0  0
  4 11  1  0  0  0  0
  5  7  2  0  0  0  0
  5 10  1  0  0  0  0
  6  9  1  0  0  0  0
  6 11  2  0  0  0  0
  7 30  1  0  0  0  0
  8 10  2  0  0  0  0
  8 30  1  0  0  0  0
  9 20  1  0  0  0  0
 10 21  1  0  0  0  0
 11 31  1  0  0  0  0
 12 23  1  0  0  0  0
 12 24  2  0  0  0  0
 12 28  1  0  0  0  0
 13 23  2  0  0  0  0
 13 25  1  0  0  0  0
 13 26  1  0  0  0  0
 14 15  2  0  0  0  0
 14 16  1  0  0  0  0
 15 26  1  0  0  0  0
 15 29  1  0  0  0  0
 16 17  1  0  0  0  0
 16 25  2  0  0  0  0
 18 20  1  0  0  0  0
 19 21  1  0  0  0  0
 19 29  1  0  0  0  0
 20 28  1  0  0  0  0
 21 27  1  0  0  0  0
 24 26  1  0  0  0  0
  2 32  1  0  0  0  0
  3 33  1  0  0  0  0
  4 34  1  0  0  0  0
  5 35  1  0  0  0  0
  6 36  1  0  0  0  0
  7 37  1  0  0  0  0
  8 38  1  0  0  0  0
 14 39  1  0  0  0  0
 17 40  1  0  0  0  0
 17 41  1  0  0  0  0
 17 42  1  0  0  0  0
 18 43  1  0  0  0  0
 18 44  1  0  0  0  0
 19 45  1  0  0  0  0
 19 46  1  0  0  0  0
 20 47  1  0  0  0  0
 21 48  1  0  0  0  0
 27 49  1  0  0  0  0
 27 50  1  0  0  0  0
 28 51  1  0  0  0  0
 29 52  1  0  0  0  0
 27 53  1  0  0  0  0
M  CHG  1  27   1
M  END
> <Molecule Name>
cmp_24

> <mmff94s_NoEstat>
69.01

> <Kd_nM>
3.3

$$$$
cmp_25
  -OEChem-07021816513D

 53 56  0     1  0  0  0  0  0999 V2000
  -14.3019    9.7539    4.7448 C   0  0  0  0  0  0  0  0  0  0  0  0
  -16.4915    9.6974    0.5128 C   0  0  0  0  0  0  0  0  0  0  0  0
  -15.0815    8.6308   -4.1846 C   0  0  0  0  0  0  0  0  0  0  0  0
  -15.4874    9.0968    1.2721 C   0  0  0  0  0  0  0  0  0  0  0  0
  -17.8190    9.6334    0.9364 C   0  0  0  0  0  0  0  0  0  0  0  0
  -14.3269    7.4275   -4.2980 C   0  0  0  0  0  0  0  0  0  0  0  0
  -17.1382    8.3680    2.8786 C   0  0  0  0  0  0  0  0  0  0  0  0
  -14.4346    9.5773   -3.4209 C   0  0  0  0  0  0  0  0  0  0  0  0
  -15.8107    8.4320    2.4550 C   0  0  0  0  0  0  0  0  0  0  0  0
  -18.1423    8.9686    2.1193 C   0  0  0  0  0  0  0  0  0  0  0  0
  -13.1317    7.5003   -3.6167 C   0  0  0  0  0  0  0  0  0  0  0  0
  -14.6476    5.4762    2.3196 C   0  0  0  0  0  0  0  0  0  0  0  0
  -14.5142    3.6106    1.3658 C   0  0  0  0  0  0  0  0  0  0  0  0
  -13.5364    3.0433   -1.1730 C   0  0  0  0  0  0  0  0  0  0  0  0
  -13.5277    4.3212   -0.7605 C   0  0  0  0  0  0  0  0  0  0  0  0
  -14.0797    2.0389   -0.2104 C   0  0  0  0  0  0  0  0  0  0  0  0
  -14.0954    0.5994   -0.6615 C   0  0  0  0  0  0  0  0  0  0  0  0
  -14.6199    8.3175    4.7164 C   0  0  0  0  0  0  0  0  0  0  0  0
  -12.5401    5.1458   -2.8272 C   0  0  0  0  0  0  0  0  0  0  0  0
  -14.7187    7.7783    3.2793 C   0  0  1  0  0  0  0  0  0  0  0  0
  -12.0495    6.4420   -3.4911 C   0  0  1  0  0  0  0  0  0  0  0  0
  -14.0497   10.8862    4.7679 N   0  0  0  0  0  0  0  0  0  0  0  0
  -14.9090    4.1565    2.4985 N   0  0  0  0  0  0  0  0  0  0  0  0
  -14.1131    5.8087    1.1485 N   0  0  0  0  0  0  0  0  0  0  0  0
  -14.5368    2.3050    0.9776 N   0  0  0  0  0  0  0  0  0  0  0  0
  -14.0205    4.6080    0.5189 N   0  0  0  0  0  0  0  0  0  0  0  0
  -11.4666    6.1327   -4.8023 N   0  3  0  0  0  0  0  0  0  0  0  0
  -14.9445    6.3373    3.3268 N   0  0  0  0  0  0  0  0  0  0  0  0
  -13.0593    5.3767   -1.5156 N   0  0  0  0  0  0  0  0  0  0  0  0
  -12.9235    9.0144   -2.8444 S   0  0  0  0  0  0  0  0  0  0  0  0
  -19.7805    8.8890    2.6408 Cl  0  0  0  0  0  0  0  0  0  0  0  0
  -16.2394   10.2148   -0.4084 H   0  0  0  0  0  0  0  0  0  0  0  0
  -16.0492    8.7949   -4.6403 H   0  0  0  0  0  0  0  0  0  0  0  0
  -14.4558    9.1515    0.9344 H   0  0  0  0  0  0  0  0  0  0  0  0
  -18.5913   10.1058    0.3343 H   0  0  0  0  0  0  0  0  0  0  0  0
  -14.6483    6.5558   -4.8538 H   0  0  0  0  0  0  0  0  0  0  0  0
  -17.3851    7.8489    3.8019 H   0  0  0  0  0  0  0  0  0  0  0  0
  -14.7771   10.5722   -3.1736 H   0  0  0  0  0  0  0  0  0  0  0  0
  -13.1752    2.7281   -2.1434 H   0  0  0  0  0  0  0  0  0  0  0  0
  -13.1606    0.1287   -0.3763 H   0  0  0  0  0  0  0  0  0  0  0  0
  -14.2138    0.5667   -1.7396 H   0  0  0  0  0  0  0  0  0  0  0  0
  -14.9279    0.0889   -0.1887 H   0  0  0  0  0  0  0  0  0  0  0  0
  -13.8726    7.7639    5.2976 H   0  0  0  0  0  0  0  0  0  0  0  0
  -15.5781    8.1614    5.2287 H   0  0  0  0  0  0  0  0  0  0  0  0
  -13.3556    4.7003   -3.4083 H   0  0  0  0  0  0  0  0  0  0  0  0
  -11.7482    4.3946   -2.7379 H   0  0  0  0  0  0  0  0  0  0  0  0
  -13.7521    7.9366    2.7836 H   0  0  0  0  0  0  0  0  0  0  0  0
  -11.2392    6.8498   -2.8727 H   0  0  0  0  0  0  0  0  0  0  0  0
  -12.0333    5.4234   -5.2214 H   0  0  0  0  0  0  0  0  0  0  0  0
  -10.5302    5.8003   -4.6903 H   0  0  0  0  0  0  0  0  0  0  0  0
  -15.3571    5.9774    4.1961 H   0  0  0  0  0  0  0  0  0  0  0  0
  -13.1101    6.2662   -1.0950 H   0  0  0  0  0  0  0  0  0  0  0  0
  -11.4633    6.9514   -5.3766 H   0  0  0  0  0  0  0  0  0  0  0  0
  1 18  1  0  0  0  0
  1 22  3  0  0  0  0
  2  4  1  0  0  0  0
  2  5  2  0  0  0  0
  3  6  1  0  0  0  0
  3  8  2  0  0  0  0
  4  9  2  0  0  0  0
  5 10  1  0  0  0  0
  6 11  2  0  0  0  0
  7  9  1  0  0  0  0
  7 10  2  0  0  0  0
  8 30  1  0  0  0  0
  9 20  1  0  0  0  0
 10 31  1  0  0  0  0
 11 21  1  0  0  0  0
 11 30  1  0  0  0  0
 12 23  1  0  0  0  0
 12 24  2  0  0  0  0
 12 28  1  0  0  0  0
 13 23  2  0  0  0  0
 13 25  1  0  0  0  0
 13 26  1  0  0  0  0
 14 15  2  0  0  0  0
 14 16  1  0  0  0  0
 15 26  1  0  0  0  0
 15 29  1  0  0  0  0
 16 17  1  0  0  0  0
 16 25  2  0  0  0  0
 18 20  1  0  0  0  0
 19 21  1  0  0  0  0
 19 29  1  0  0  0  0
 20 28  1  0  0  0  0
 21 27  1  0  0  0  0
 24 26  1  0  0  0  0
  2 32  1  0  0  0  0
  3 33  1  0  0  0  0
  4 34  1  0  0  0  0
  5 35  1  0  0  0  0
  6 36  1  0  0  0  0
  7 37  1  0  0  0  0
  8 38  1  0  0  0  0
 14 39  1  0  0  0  0
 17 40  1  0  0  0  0
 17 41  1  0  0  0  0
 17 42  1  0  0  0  0
 18 43  1  0  0  0  0
 18 44  1  0  0  0  0
 19 45  1  0  0  0  0
 19 46  1  0  0  0  0
 20 47  1  0  0  0  0
 21 48  1  0  0  0  0
 27 49  1  0  0  0  0
 27 50  1  0  0  0  0
 28 51  1  0  0  0  0
 29 52  1  0  0  0  0
 27 53  1  0  0  0  0
M  CHG  1  27   1
M  END
> <Molecule Name>
cmp_25

> <mmff94s_NoEstat>
68.35

> <Kd_nM>
2

$$$$
cmp_26
  -OEChem-07021816513D

 56 59  0     1  0  0  0  0  0999 V2000
    2.2015   10.6884    4.9266 C   0  0  0  0  0  0  0  0  0  0  0  0
    1.0742   13.7339    1.4393 C   0  0  0  0  0  0  0  0  0  0  0  0
    2.0282   12.8104    1.8666 C   0  0  0  0  0  0  0  0  0  0  0  0
    5.6343   16.4095   -0.3642 C   0  0  0  0  0  0  0  0  0  0  0  0
    4.6335   15.3257   -2.2775 C   0  0  0  0  0  0  0  0  0  0  0  0
    4.4423   17.0944   -0.1285 C   0  0  0  0  0  0  0  0  0  0  0  0
    3.4414   16.0105   -2.0418 C   0  0  0  0  0  0  0  0  0  0  0  0
   -0.2312   13.3177    1.1773 C   0  0  0  0  0  0  0  0  0  0  0  0
    0.3716   11.0544    1.7698 C   0  0  0  0  0  0  0  0  0  0  0  0
    5.7300   15.5252   -1.4387 C   0  0  0  0  0  0  0  0  0  0  0  0
    1.6769   11.4706    2.0318 C   0  0  0  0  0  0  0  0  0  0  0  0
    3.3458   16.8948   -0.9673 C   0  0  0  0  0  0  0  0  0  0  0  0
   -0.5824   11.9779    1.3425 C   0  0  0  0  0  0  0  0  0  0  0  0
    3.6735    9.6715    0.3333 C   0  0  0  0  0  0  0  0  0  0  0  0
    4.5580    9.1621   -1.5014 C   0  0  0  0  0  0  0  0  0  0  0  0
    6.1734   10.7342   -3.1269 C   0  0  0  0  0  0  0  0  0  0  0  0
    5.7115   11.2680   -1.9846 C   0  0  0  0  0  0  0  0  0  0  0  0
    5.7658    9.3263   -3.4139 C   0  0  0  0  0  0  0  0  0  0  0  0
    6.2778    8.7145   -4.6943 C   0  0  0  0  0  0  0  0  0  0  0  0
    2.3421    9.7487    3.8031 C   0  0  0  0  0  0  0  0  0  0  0  0
    6.8193   13.4046   -2.3515 C   0  0  0  0  0  0  0  0  0  0  0  0
    7.0275   14.7786   -1.6955 C   0  0  1  0  0  0  0  0  0  0  0  0
    2.7149   10.4670    2.4952 C   0  0  1  0  0  0  0  0  0  0  0  0
    2.0919   11.4287    5.8133 N   0  0  0  0  0  0  0  0  0  0  0  0
    3.7880    8.6556   -0.5593 N   0  0  0  0  0  0  0  0  0  0  0  0
    4.3183   10.7922    0.0234 N   0  0  0  0  0  0  0  0  0  0  0  0
    5.0102    8.5911   -2.6527 N   0  0  0  0  0  0  0  0  0  0  0  0
    4.8971   10.4764   -1.1649 N   0  0  0  0  0  0  0  0  0  0  0  0
    7.9392   15.5831   -2.5178 N   0  3  0  0  0  0  0  0  0  0  0  0
    2.9267    9.4713    1.4496 N   0  0  0  0  0  0  0  0  0  0  0  0
    5.9903   12.5508   -1.5596 N   0  0  0  0  0  0  0  0  0  0  0  0
    2.2001   17.5504   -0.7395 F   0  0  0  0  0  0  0  0  0  0  0  0
   -2.1927   11.4647    1.0179 Cl  0  0  0  0  0  0  0  0  0  0  0  0
    1.3481   14.7771    1.3106 H   0  0  0  0  0  0  0  0  0  0  0  0
    3.0429   13.1436    2.0684 H   0  0  0  0  0  0  0  0  0  0  0  0
    6.4835   16.5721    0.2943 H   0  0  0  0  0  0  0  0  0  0  0  0
    4.6986   14.6384   -3.1169 H   0  0  0  0  0  0  0  0  0  0  0  0
    4.3675   17.7823    0.7083 H   0  0  0  0  0  0  0  0  0  0  0  0
    2.5876   15.8558   -2.6948 H   0  0  0  0  0  0  0  0  0  0  0  0
   -0.9642   14.0484    0.8446 H   0  0  0  0  0  0  0  0  0  0  0  0
    0.1027   10.0087    1.9006 H   0  0  0  0  0  0  0  0  0  0  0  0
    6.8087   11.2697   -3.8205 H   0  0  0  0  0  0  0  0  0  0  0  0
    7.2284    8.2295   -4.4998 H   0  0  0  0  0  0  0  0  0  0  0  0
    6.4049    9.4969   -5.4354 H   0  0  0  0  0  0  0  0  0  0  0  0
    5.5564    7.9878   -5.0531 H   0  0  0  0  0  0  0  0  0  0  0  0
    3.0806    8.9790    4.0577 H   0  0  0  0  0  0  0  0  0  0  0  0
    1.3893    9.2207    3.6677 H   0  0  0  0  0  0  0  0  0  0  0  0
    6.3167   13.5122   -3.3195 H   0  0  0  0  0  0  0  0  0  0  0  0
    7.7625   12.8756   -2.5249 H   0  0  0  0  0  0  0  0  0  0  0  0
    7.5287   14.6178   -0.7320 H   0  0  0  0  0  0  0  0  0  0  0  0
    3.6714   10.9844    2.6457 H   0  0  0  0  0  0  0  0  0  0  0  0
    7.7129   15.4056   -3.4756 H   0  0  0  0  0  0  0  0  0  0  0  0
    8.8864   15.3194   -2.3358 H   0  0  0  0  0  0  0  0  0  0  0  0
    2.4673    8.5641    1.5960 H   0  0  0  0  0  0  0  0  0  0  0  0
    5.5878   12.8199   -0.7016 H   0  0  0  0  0  0  0  0  0  0  0  0
    7.8181   16.5542   -2.3122 H   0  0  0  0  0  0  0  0  0  0  0  0
  1 20  1  0  0  0  0
  1 24  3  0  0  0  0
  2  3  2  0  0  0  0
  2  8  1  0  0  0  0
  3 11  1  0  0  0  0
  4  6  1  0  0  0  0
  4 10  2  0  0  0  0
  5  7  2  0  0  0  0
  5 10  1  0  0  0  0
  6 12  2  0  0  0  0
  7 12  1  0  0  0  0
  8 13  2  0  0  0  0
  9 11  2  0  0  0  0
  9 13  1  0  0  0  0
 10 22  1  0  0  0  0
 11 23  1  0  0  0  0
 12 32  1  0  0  0  0
 13 33  1  0  0  0  0
 14 25  1  0  0  0  0
 14 26  2  0  0  0  0
 14 30  1  0  0  0  0
 15 25  2  0  0  0  0
 15 27  1  0  0  0  0
 15 28  1  0  0  0  0
 16 17  2  0  0  0  0
 16 18  1  0  0  0  0
 17 28  1  0  0  0  0
 17 31  1  0  0  0  0
 18 19  1  0  0  0  0
 18 27  2  0  0  0  0
 20 23  1  0  0  0  0
 21 22  1  0  0  0  0
 21 31  1  0  0  0  0
 22 29  1  0  0  0  0
 23 30  1  0  0  0  0
 26 28  1  0  0  0  0
  2 34  1  0  0  0  0
  3 35  1  0  0  0  0
  4 36  1  0  0  0  0
  5 37  1  0  0  0  0
  6 38  1  0  0  0  0
  7 39  1  0  0  0  0
  8 40  1  0  0  0  0
  9 41  1  0  0  0  0
 16 42  1  0  0  0  0
 19 43  1  0  0  0  0
 19 44  1  0  0  0  0
 19 45  1  0  0  0  0
 20 46  1  0  0  0  0
 20 47  1  0  0  0  0
 21 48  1  0  0  0  0
 21 49  1  0  0  0  0
 22 50  1  0  0  0  0
 23 51  1  0  0  0  0
 29 52  1  0  0  0  0
 29 53  1  0  0  0  0
 30 54  1  0  0  0  0
 31 55  1  0  0  0  0
 29 56  1  0  0  0  0
M  CHG  1  29   1
M  END
> <Molecule Name>
cmp_26

> <mmff94s_NoEstat>
84.34

> <Kd_nM>
6.7

$$$$
cmp_27
  -OEChem-07021816513D

 56 59  0     1  0  0  0  0  0999 V2000
    2.2015   10.6884    4.9266 C   0  0  0  0  0  0  0  0  0  0  0  0
    3.7033   16.5434   -2.2709 C   0  0  0  0  0  0  0  0  0  0  0  0
    1.0742   13.7339    1.4393 C   0  0  0  0  0  0  0  0  0  0  0  0
    4.8950   15.8577   -2.5055 C   0  0  0  0  0  0  0  0  0  0  0  0
    2.0282   12.8104    1.8666 C   0  0  0  0  0  0  0  0  0  0  0  0
    3.3465   16.8968   -0.9695 C   0  0  0  0  0  0  0  0  0  0  0  0
   -0.2312   13.3177    1.1773 C   0  0  0  0  0  0  0  0  0  0  0  0
    5.3732   15.8785   -0.1373 C   0  0  0  0  0  0  0  0  0  0  0  0
    0.3716   11.0544    1.7698 C   0  0  0  0  0  0  0  0  0  0  0  0
    5.7300   15.5252   -1.4387 C   0  0  0  0  0  0  0  0  0  0  0  0
    1.6769   11.4706    2.0318 C   0  0  0  0  0  0  0  0  0  0  0  0
    4.1814   16.5643    0.0972 C   0  0  0  0  0  0  0  0  0  0  0  0
   -0.5824   11.9779    1.3425 C   0  0  0  0  0  0  0  0  0  0  0  0
    3.6735    9.6715    0.3333 C   0  0  0  0  0  0  0  0  0  0  0  0
    4.5580    9.1621   -1.5014 C   0  0  0  0  0  0  0  0  0  0  0  0
    6.1734   10.7342   -3.1269 C   0  0  0  0  0  0  0  0  0  0  0  0
    5.7115   11.2680   -1.9846 C   0  0  0  0  0  0  0  0  0  0  0  0
    5.7658    9.3263   -3.4139 C   0  0  0  0  0  0  0  0  0  0  0  0
    6.2778    8.7145   -4.6943 C   0  0  0  0  0  0  0  0  0  0  0  0
    2.3421    9.7487    3.8031 C   0  0  0  0  0  0  0  0  0  0  0  0
    6.8193   13.4046   -2.3515 C   0  0  0  0  0  0  0  0  0  0  0  0
    7.0275   14.7786   -1.6955 C   0  0  1  0  0  0  0  0  0  0  0  0
    2.7149   10.4670    2.4952 C   0  0  1  0  0  0  0  0  0  0  0  0
    2.0919   11.4287    5.8133 N   0  0  0  0  0  0  0  0  0  0  0  0
    3.7880    8.6556   -0.5593 N   0  0  0  0  0  0  0  0  0  0  0  0
    4.3183   10.7922    0.0234 N   0  0  0  0  0  0  0  0  0  0  0  0
    5.0102    8.5911   -2.6527 N   0  0  0  0  0  0  0  0  0  0  0  0
    4.8971   10.4764   -1.1649 N   0  0  0  0  0  0  0  0  0  0  0  0
    7.9392   15.5831   -2.5178 N   0  3  0  0  0  0  0  0  0  0  0  0
    2.9267    9.4713    1.4496 N   0  0  0  0  0  0  0  0  0  0  0  0
    5.9903   12.5508   -1.5596 N   0  0  0  0  0  0  0  0  0  0  0  0
    3.8387   16.9032    1.3470 F   0  0  0  0  0  0  0  0  0  0  0  0
   -2.1927   11.4647    1.0179 Cl  0  0  0  0  0  0  0  0  0  0  0  0
    3.0533   16.8027   -3.1016 H   0  0  0  0  0  0  0  0  0  0  0  0
    1.3481   14.7771    1.3106 H   0  0  0  0  0  0  0  0  0  0  0  0
    5.1647   15.5863   -3.5229 H   0  0  0  0  0  0  0  0  0  0  0  0
    3.0429   13.1436    2.0684 H   0  0  0  0  0  0  0  0  0  0  0  0
    2.4184   17.4301   -0.7871 H   0  0  0  0  0  0  0  0  0  0  0  0
   -0.9642   14.0484    0.8446 H   0  0  0  0  0  0  0  0  0  0  0  0
    6.0174   15.6245    0.7000 H   0  0  0  0  0  0  0  0  0  0  0  0
    0.1027   10.0087    1.9006 H   0  0  0  0  0  0  0  0  0  0  0  0
    6.8087   11.2697   -3.8205 H   0  0  0  0  0  0  0  0  0  0  0  0
    7.2284    8.2295   -4.4998 H   0  0  0  0  0  0  0  0  0  0  0  0
    6.4049    9.4969   -5.4354 H   0  0  0  0  0  0  0  0  0  0  0  0
    5.5564    7.9878   -5.0531 H   0  0  0  0  0  0  0  0  0  0  0  0
    3.0806    8.9790    4.0577 H   0  0  0  0  0  0  0  0  0  0  0  0
    1.3893    9.2207    3.6677 H   0  0  0  0  0  0  0  0  0  0  0  0
    6.3167   13.5122   -3.3195 H   0  0  0  0  0  0  0  0  0  0  0  0
    7.7625   12.8756   -2.5249 H   0  0  0  0  0  0  0  0  0  0  0  0
    7.5287   14.6178   -0.7320 H   0  0  0  0  0  0  0  0  0  0  0  0
    3.6714   10.9844    2.6457 H   0  0  0  0  0  0  0  0  0  0  0  0
    7.7129   15.4056   -3.4756 H   0  0  0  0  0  0  0  0  0  0  0  0
    8.8864   15.3194   -2.3358 H   0  0  0  0  0  0  0  0  0  0  0  0
    2.4673    8.5641    1.5960 H   0  0  0  0  0  0  0  0  0  0  0  0
    5.5878   12.8199   -0.7016 H   0  0  0  0  0  0  0  0  0  0  0  0
    7.8181   16.5542   -2.3122 H   0  0  0  0  0  0  0  0  0  0  0  0
  1 20  1  0  0  0  0
  1 24  3  0  0  0  0
  2  4  1  0  0  0  0
  2  6  2  0  0  0  0
  3  5  2  0  0  0  0
  3  7  1  0  0  0  0
  4 10  2  0  0  0  0
  5 11  1  0  0  0  0
  6 12  1  0  0  0  0
  7 13  2  0  0  0  0
  8 10  1  0  0  0  0
  8 12  2  0  0  0  0
  9 11  2  0  0  0  0
  9 13  1  0  0  0  0
 10 22  1  0  0  0  0
 11 23  1  0  0  0  0
 12 32  1  0  0  0  0
 13 33  1  0  0  0  0
 14 25  1  0  0  0  0
 14 26  2  0  0  0  0
 14 30  1  0  0  0  0
 15 25  2  0  0  0  0
 15 27  1  0  0  0  0
 15 28  1  0  0  0  0
 16 17  2  0  0  0  0
 16 18  1  0  0  0  0
 17 28  1  0  0  0  0
 17 31  1  0  0  0  0
 18 19  1  0  0  0  0
 18 27  2  0  0  0  0
 20 23  1  0  0  0  0
 21 22  1  0  0  0  0
 21 31  1  0  0  0  0
 22 29  1  0  0  0  0
 23 30  1  0  0  0  0
 26 28  1  0  0  0  0
  2 34  1  0  0  0  0
  3 35  1  0  0  0  0
  4 36  1  0  0  0  0
  5 37  1  0  0  0  0
  6 38  1  0  0  0  0
  7 39  1  0  0  0  0
  8 40  1  0  0  0  0
  9 41  1  0  0  0  0
 16 42  1  0  0  0  0
 19 43  1  0  0  0  0
 19 44  1  0  0  0  0
 19 45  1  0  0  0  0
 20 46  1  0  0  0  0
 20 47  1  0  0  0  0
 21 48  1  0  0  0  0
 21 49  1  0  0  0  0
 22 50  1  0  0  0  0
 23 51  1  0  0  0  0
 29 52  1  0  0  0  0
 29 53  1  0  0  0  0
 30 54  1  0  0  0  0
 31 55  1  0  0  0  0
 29 56  1  0  0  0  0
M  CHG  1  29   1
M  END
> <Molecule Name>
cmp_27

> <mmff94s_NoEstat>
82.01

> <Kd_nM>
2.9

$$$$
cmp_28
  -OEChem-07021816513D

 56 59  0     1  0  0  0  0  0999 V2000
  -14.3019    9.7539    4.7448 C   0  0  0  0  0  0  0  0  0  0  0  0
  -15.2779    8.2018   -4.4763 C   0  0  0  0  0  0  0  0  0  0  0  0
  -15.1236    9.4393   -3.8515 C   0  0  0  0  0  0  0  0  0  0  0  0
  -16.4915    9.6974    0.5128 C   0  0  0  0  0  0  0  0  0  0  0  0
  -14.2819    7.2323   -4.3589 C   0  0  0  0  0  0  0  0  0  0  0  0
  -15.4874    9.0968    1.2721 C   0  0  0  0  0  0  0  0  0  0  0  0
  -13.9734    9.7074   -3.1094 C   0  0  0  0  0  0  0  0  0  0  0  0
  -17.8190    9.6334    0.9364 C   0  0  0  0  0  0  0  0  0  0  0  0
  -17.1382    8.3680    2.8786 C   0  0  0  0  0  0  0  0  0  0  0  0
  -15.8107    8.4320    2.4550 C   0  0  0  0  0  0  0  0  0  0  0  0
  -13.1317    7.5003   -3.6167 C   0  0  0  0  0  0  0  0  0  0  0  0
  -12.9774    8.7379   -2.9920 C   0  0  0  0  0  0  0  0  0  0  0  0
  -18.1423    8.9686    2.1193 C   0  0  0  0  0  0  0  0  0  0  0  0
  -14.6476    5.4762    2.3196 C   0  0  0  0  0  0  0  0  0  0  0  0
  -14.5142    3.6106    1.3658 C   0  0  0  0  0  0  0  0  0  0  0  0
  -13.5364    3.0433   -1.1730 C   0  0  0  0  0  0  0  0  0  0  0  0
  -13.5277    4.3212   -0.7605 C   0  0  0  0  0  0  0  0  0  0  0  0
  -14.0797    2.0389   -0.2104 C   0  0  0  0  0  0  0  0  0  0  0  0
  -14.0954    0.5994   -0.6615 C   0  0  0  0  0  0  0  0  0  0  0  0
  -14.6199    8.3175    4.7164 C   0  0  0  0  0  0  0  0  0  0  0  0
  -12.5401    5.1458   -2.8272 C   0  0  0  0  0  0  0  0  0  0  0  0
  -14.7187    7.7783    3.2793 C   0  0  1  0  0  0  0  0  0  0  0  0
  -12.0495    6.4420   -3.4911 C   0  0  1  0  0  0  0  0  0  0  0  0
  -14.0497   10.8862    4.7679 N   0  0  0  0  0  0  0  0  0  0  0  0
  -14.9090    4.1565    2.4985 N   0  0  0  0  0  0  0  0  0  0  0  0
  -14.1131    5.8087    1.1485 N   0  0  0  0  0  0  0  0  0  0  0  0
  -14.5368    2.3050    0.9776 N   0  0  0  0  0  0  0  0  0  0  0  0
  -14.0205    4.6080    0.5189 N   0  0  0  0  0  0  0  0  0  0  0  0
  -11.4666    6.1327   -4.8023 N   0  3  0  0  0  0  0  0  0  0  0  0
  -14.9445    6.3373    3.3268 N   0  0  0  0  0  0  0  0  0  0  0  0
  -13.0593    5.3767   -1.5156 N   0  0  0  0  0  0  0  0  0  0  0  0
  -11.8758    9.0045   -2.2766 F   0  0  0  0  0  0  0  0  0  0  0  0
  -19.7805    8.8890    2.6408 Cl  0  0  0  0  0  0  0  0  0  0  0  0
  -16.1734    7.9931   -5.0547 H   0  0  0  0  0  0  0  0  0  0  0  0
  -15.8988   10.1944   -3.9434 H   0  0  0  0  0  0  0  0  0  0  0  0
  -16.2394   10.2148   -0.4084 H   0  0  0  0  0  0  0  0  0  0  0  0
  -14.4105    6.2712   -4.8497 H   0  0  0  0  0  0  0  0  0  0  0  0
  -14.4558    9.1515    0.9344 H   0  0  0  0  0  0  0  0  0  0  0  0
  -13.8531   10.6707   -2.6225 H   0  0  0  0  0  0  0  0  0  0  0  0
  -18.5913   10.1058    0.3343 H   0  0  0  0  0  0  0  0  0  0  0  0
  -17.3851    7.8489    3.8019 H   0  0  0  0  0  0  0  0  0  0  0  0
  -13.1752    2.7281   -2.1434 H   0  0  0  0  0  0  0  0  0  0  0  0
  -13.1606    0.1287   -0.3763 H   0  0  0  0  0  0  0  0  0  0  0  0
  -14.2138    0.5667   -1.7396 H   0  0  0  0  0  0  0  0  0  0  0  0
  -14.9279    0.0889   -0.1887 H   0  0  0  0  0  0  0  0  0  0  0  0
  -13.8726    7.7639    5.2976 H   0  0  0  0  0  0  0  0  0  0  0  0
  -15.5781    8.1614    5.2287 H   0  0  0  0  0  0  0  0  0  0  0  0
  -13.3556    4.7003   -3.4083 H   0  0  0  0  0  0  0  0  0  0  0  0
  -11.7482    4.3946   -2.7379 H   0  0  0  0  0  0  0  0  0  0  0  0
  -13.7521    7.9366    2.7836 H   0  0  0  0  0  0  0  0  0  0  0  0
  -11.2392    6.8498   -2.8727 H   0  0  0  0  0  0  0  0  0  0  0  0
  -12.0333    5.4234   -5.2214 H   0  0  0  0  0  0  0  0  0  0  0  0
  -10.5301    5.8003   -4.6903 H   0  0  0  0  0  0  0  0  0  0  0  0
  -15.3571    5.9774    4.1961 H   0  0  0  0  0  0  0  0  0  0  0  0
  -13.1101    6.2662   -1.0950 H   0  0  0  0  0  0  0  0  0  0  0  0
  -11.4633    6.9514   -5.3766 H   0  0  0  0  0  0  0  0  0  0  0  0
  1 20  1  0  0  0  0
  1 24  3  0  0  0  0
  2  3  2  0  0  0  0
  2  5  1  0  0  0  0
  3  7  1  0  0  0  0
  4  6  2  0  0  0  0
  4  8  1  0  0  0  0
  5 11  2  0  0  0  0
  6 10  1  0  0  0  0
  7 12  2  0  0  0  0
  8 13  2  0  0  0  0
  9 10  2  0  0  0  0
  9 13  1  0  0  0  0
 10 22  1  0  0  0  0
 11 12  1  0  0  0  0
 11 23  1  0  0  0  0
 12 32  1  0  0  0  0
 13 33  1  0  0  0  0
 14 25  1  0  0  0  0
 14 26  2  0  0  0  0
 14 30  1  0  0  0  0
 15 25  2  0  0  0  0
 15 27  1  0  0  0  0
 15 28  1  0  0  0  0
 16 17  2  0  0  0  0
 16 18  1  0  0  0  0
 17 28  1  0  0  0  0
 17 31  1  0  0  0  0
 18 19  1  0  0  0  0
 18 27  2  0  0  0  0
 20 22  1  0  0  0  0
 21 23  1  0  0  0  0
 21 31  1  0  0  0  0
 22 30  1  0  0  0  0
 23 29  1  0  0  0  0
 26 28  1  0  0  0  0
  2 34  1  0  0  0  0
  3 35  1  0  0  0  0
  4 36  1  0  0  0  0
  5 37  1  0  0  0  0
  6 38  1  0  0  0  0
  7 39  1  0  0  0  0
  8 40  1  0  0  0  0
  9 41  1  0  0  0  0
 16 42  1  0  0  0  0
 19 43  1  0  0  0  0
 19 44  1  0  0  0  0
 19 45  1  0  0  0  0
 20 46  1  0  0  0  0
 20 47  1  0  0  0  0
 21 48  1  0  0  0  0
 21 49  1  0  0  0  0
 22 50  1  0  0  0  0
 23 51  1  0  0  0  0
 29 52  1  0  0  0  0
 29 53  1  0  0  0  0
 30 54  1  0  0  0  0
 31 55  1  0  0  0  0
 29 56  1  0  0  0  0
M  CHG  1  29   1
M  END
> <Molecule Name>
cmp_28

> <mmff94s_NoEstat>
82.25

> <Kd_nM>
0.46

$$$$
cmp_29
  -OEChem-07021816513D

 55 58  0     1  0  0  0  0  0999 V2000
  -14.3019    9.7539    4.7448 C   0  0  0  0  0  0  0  0  0  0  0  0
  -16.4915    9.6974    0.5128 C   0  0  0  0  0  0  0  0  0  0  0  0
  -15.4874    9.0968    1.2721 C   0  0  0  0  0  0  0  0  0  0  0  0
  -17.8190    9.6334    0.9364 C   0  0  0  0  0  0  0  0  0  0  0  0
  -12.9773    8.7338   -2.9939 C   0  0  0  0  0  0  0  0  0  0  0  0
  -14.2804    7.2397   -4.3556 C   0  0  0  0  0  0  0  0  0  0  0  0
  -17.1382    8.3680    2.8786 C   0  0  0  0  0  0  0  0  0  0  0  0
  -13.9926    9.6654   -3.1395 C   0  0  0  0  0  0  0  0  0  0  0  0
  -15.2374    8.2381   -4.4400 C   0  0  0  0  0  0  0  0  0  0  0  0
  -15.8107    8.4320    2.4550 C   0  0  0  0  0  0  0  0  0  0  0  0
  -13.1317    7.5003   -3.6167 C   0  0  0  0  0  0  0  0  0  0  0  0
  -18.1423    8.9686    2.1193 C   0  0  0  0  0  0  0  0  0  0  0  0
  -14.6476    5.4762    2.3196 C   0  0  0  0  0  0  0  0  0  0  0  0
  -14.5142    3.6106    1.3658 C   0  0  0  0  0  0  0  0  0  0  0  0
  -13.5364    3.0433   -1.1730 C   0  0  0  0  0  0  0  0  0  0  0  0
  -13.5277    4.3212   -0.7605 C   0  0  0  0  0  0  0  0  0  0  0  0
  -14.0797    2.0389   -0.2104 C   0  0  0  0  0  0  0  0  0  0  0  0
  -14.0954    0.5994   -0.6615 C   0  0  0  0  0  0  0  0  0  0  0  0
  -14.6199    8.3175    4.7164 C   0  0  0  0  0  0  0  0  0  0  0  0
  -12.5401    5.1458   -2.8272 C   0  0  0  0  0  0  0  0  0  0  0  0
  -14.7187    7.7783    3.2793 C   0  0  1  0  0  0  0  0  0  0  0  0
  -12.0495    6.4420   -3.4911 C   0  0  1  0  0  0  0  0  0  0  0  0
  -14.0497   10.8862    4.7679 N   0  0  0  0  0  0  0  0  0  0  0  0
  -15.1227    9.4485   -3.8490 N   0  0  0  0  0  0  0  0  0  0  0  0
  -14.9090    4.1565    2.4985 N   0  0  0  0  0  0  0  0  0  0  0  0
  -14.1131    5.8087    1.1485 N   0  0  0  0  0  0  0  0  0  0  0  0
  -14.5368    2.3050    0.9776 N   0  0  0  0  0  0  0  0  0  0  0  0
  -14.0205    4.6080    0.5189 N   0  0  0  0  0  0  0  0  0  0  0  0
  -11.4666    6.1327   -4.8023 N   0  3  0  0  0  0  0  0  0  0  0  0
  -14.9445    6.3373    3.3268 N   0  0  0  0  0  0  0  0  0  0  0  0
  -13.0593    5.3767   -1.5156 N   0  0  0  0  0  0  0  0  0  0  0  0
  -19.7805    8.8890    2.6408 Cl  0  0  0  0  0  0  0  0  0  0  0  0
  -16.2394   10.2148   -0.4084 H   0  0  0  0  0  0  0  0  0  0  0  0
  -14.4558    9.1515    0.9344 H   0  0  0  0  0  0  0  0  0  0  0  0
  -18.5913   10.1058    0.3343 H   0  0  0  0  0  0  0  0  0  0  0  0
  -12.0929    8.9685   -2.4113 H   0  0  0  0  0  0  0  0  0  0  0  0
  -14.4298    6.2874   -4.8526 H   0  0  0  0  0  0  0  0  0  0  0  0
  -17.3851    7.8489    3.8019 H   0  0  0  0  0  0  0  0  0  0  0  0
  -13.9200   10.6431   -2.6744 H   0  0  0  0  0  0  0  0  0  0  0  0
  -16.1513    8.0845   -5.0043 H   0  0  0  0  0  0  0  0  0  0  0  0
  -13.1752    2.7281   -2.1434 H   0  0  0  0  0  0  0  0  0  0  0  0
  -13.1606    0.1287   -0.3763 H   0  0  0  0  0  0  0  0  0  0  0  0
  -14.2138    0.5667   -1.7396 H   0  0  0  0  0  0  0  0  0  0  0  0
  -14.9279    0.0889   -0.1887 H   0  0  0  0  0  0  0  0  0  0  0  0
  -13.8726    7.7639    5.2976 H   0  0  0  0  0  0  0  0  0  0  0  0
  -15.5781    8.1614    5.2287 H   0  0  0  0  0  0  0  0  0  0  0  0
  -13.3556    4.7003   -3.4083 H   0  0  0  0  0  0  0  0  0  0  0  0
  -11.7482    4.3946   -2.7379 H   0  0  0  0  0  0  0  0  0  0  0  0
  -13.7521    7.9366    2.7836 H   0  0  0  0  0  0  0  0  0  0  0  0
  -11.2392    6.8498   -2.8727 H   0  0  0  0  0  0  0  0  0  0  0  0
  -12.0333    5.4234   -5.2214 H   0  0  0  0  0  0  0  0  0  0  0  0
  -10.5302    5.8003   -4.6903 H   0  0  0  0  0  0  0  0  0  0  0  0
  -15.3571    5.9774    4.1961 H   0  0  0  0  0  0  0  0  0  0  0  0
  -13.1101    6.2662   -1.0950 H   0  0  0  0  0  0  0  0  0  0  0  0
  -11.4633    6.9514   -5.3766 H   0  0  0  0  0  0  0  0  0  0  0  0
  1 19  1  0  0  0  0
  1 23  3  0  0  0  0
  2  3  2  0  0  0  0
  2  4  1  0  0  0  0
  3 10  1  0  0  0  0
  4 12  2  0  0  0  0
  5  8  1  0  0  0  0
  5 11  2  0  0  0  0
  6  9  2  0  0  0  0
  6 11  1  0  0  0  0
  7 10  2  0  0  0  0
  7 12  1  0  0  0  0
  8 24  2  0  0  0  0
  9 24  1  0  0  0  0
 10 21  1  0  0  0  0
 11 22  1  0  0  0  0
 12 32  1  0  0  0  0
 13 25  1  0  0  0  0
 13 26  2  0  0  0  0
 13 30  1  0  0  0  0
 14 25  2  0  0  0  0
 14 27  1  0  0  0  0
 14 28  1  0  0  0  0
 15 16  2  0  0  0  0
 15 17  1  0  0  0  0
 16 28  1  0  0  0  0
 16 31  1  0  0  0  0
 17 18  1  0  0  0  0
 17 27  2  0  0  0  0
 19 21  1  0  0  0  0
 20 22  1  0  0  0  0
 20 31  1  0  0  0  0
 21 30  1  0  0  0  0
 22 29  1  0  0  0  0
 26 28  1  0  0  0  0
  2 33  1  0  0  0  0
  3 34  1  0  0  0  0
  4 35  1  0  0  0  0
  5 36  1  0  0  0  0
  6 37  1  0  0  0  0
  7 38  1  0  0  0  0
  8 39  1  0  0  0  0
  9 40  1  0  0  0  0
 15 41  1  0  0  0  0
 18 42  1  0  0  0  0
 18 43  1  0  0  0  0
 18 44  1  0  0  0  0
 19 45  1  0  0  0  0
 19 46  1  0  0  0  0
 20 47  1  0  0  0  0
 20 48  1  0  0  0  0
 21 49  1  0  0  0  0
 22 50  1  0  0  0  0
 29 51  1  0  0  0  0
 29 52  1  0  0  0  0
 30 53  1  0  0  0  0
 31 54  1  0  0  0  0
 29 55  1  0  0  0  0
M  CHG  1  29   1
M  END
> <Molecule Name>
cmp_29

> <mmff94s_NoEstat>
82.32

> <Kd_nM>
6.7

$$$$
cmp_30
  -OEChem-07021816513D

 55 58  0     1  0  0  0  0  0999 V2000
  -14.3019    9.7539    4.7448 C   0  0  0  0  0  0  0  0  0  0  0  0
  -16.4915    9.6974    0.5128 C   0  0  0  0  0  0  0  0  0  0  0  0
  -14.0036    9.6890   -3.1335 C   0  0  0  0  0  0  0  0  0  0  0  0
  -15.4874    9.0968    1.2721 C   0  0  0  0  0  0  0  0  0  0  0  0
  -12.9962    8.7399   -3.0015 C   0  0  0  0  0  0  0  0  0  0  0  0
  -17.8190    9.6334    0.9364 C   0  0  0  0  0  0  0  0  0  0  0  0
  -17.1382    8.3680    2.8786 C   0  0  0  0  0  0  0  0  0  0  0  0
  -15.1176    9.3522   -3.8853 C   0  0  0  0  0  0  0  0  0  0  0  0
  -14.2848    7.2613   -4.3468 C   0  0  0  0  0  0  0  0  0  0  0  0
  -15.8107    8.4320    2.4550 C   0  0  0  0  0  0  0  0  0  0  0  0
  -13.1317    7.5003   -3.6167 C   0  0  0  0  0  0  0  0  0  0  0  0
  -18.1423    8.9686    2.1193 C   0  0  0  0  0  0  0  0  0  0  0  0
  -14.6476    5.4762    2.3196 C   0  0  0  0  0  0  0  0  0  0  0  0
  -14.5142    3.6106    1.3658 C   0  0  0  0  0  0  0  0  0  0  0  0
  -13.5364    3.0433   -1.1730 C   0  0  0  0  0  0  0  0  0  0  0  0
  -13.5277    4.3212   -0.7605 C   0  0  0  0  0  0  0  0  0  0  0  0
  -14.0797    2.0389   -0.2104 C   0  0  0  0  0  0  0  0  0  0  0  0
  -14.0954    0.5994   -0.6615 C   0  0  0  0  0  0  0  0  0  0  0  0
  -14.6199    8.3175    4.7164 C   0  0  0  0  0  0  0  0  0  0  0  0
  -12.5401    5.1458   -2.8272 C   0  0  0  0  0  0  0  0  0  0  0  0
  -14.7187    7.7783    3.2793 C   0  0  1  0  0  0  0  0  0  0  0  0
  -12.0495    6.4420   -3.4911 C   0  0  1  0  0  0  0  0  0  0  0  0
  -14.0497   10.8862    4.7679 N   0  0  0  0  0  0  0  0  0  0  0  0
  -15.2848    8.1585   -4.4975 N   0  0  0  0  0  0  0  0  0  0  0  0
  -14.9090    4.1565    2.4985 N   0  0  0  0  0  0  0  0  0  0  0  0
  -14.1131    5.8087    1.1485 N   0  0  0  0  0  0  0  0  0  0  0  0
  -14.5368    2.3050    0.9776 N   0  0  0  0  0  0  0  0  0  0  0  0
  -14.0205    4.6080    0.5189 N   0  0  0  0  0  0  0  0  0  0  0  0
  -11.4666    6.1327   -4.8023 N   0  3  0  0  0  0  0  0  0  0  0  0
  -14.9445    6.3373    3.3268 N   0  0  0  0  0  0  0  0  0  0  0  0
  -13.0593    5.3767   -1.5156 N   0  0  0  0  0  0  0  0  0  0  0  0
  -19.7805    8.8890    2.6408 Cl  0  0  0  0  0  0  0  0  0  0  0  0
  -16.2394   10.2148   -0.4084 H   0  0  0  0  0  0  0  0  0  0  0  0
  -13.9196   10.6618   -2.6625 H   0  0  0  0  0  0  0  0  0  0  0  0
  -14.4558    9.1515    0.9344 H   0  0  0  0  0  0  0  0  0  0  0  0
  -12.1101    8.9744   -2.4180 H   0  0  0  0  0  0  0  0  0  0  0  0
  -18.5913   10.1058    0.3343 H   0  0  0  0  0  0  0  0  0  0  0  0
  -17.3851    7.8489    3.8019 H   0  0  0  0  0  0  0  0  0  0  0  0
  -15.9309   10.0580   -4.0187 H   0  0  0  0  0  0  0  0  0  0  0  0
  -14.4464    6.3125   -4.8489 H   0  0  0  0  0  0  0  0  0  0  0  0
  -13.1752    2.7281   -2.1434 H   0  0  0  0  0  0  0  0  0  0  0  0
  -13.1606    0.1287   -0.3763 H   0  0  0  0  0  0  0  0  0  0  0  0
  -14.2138    0.5667   -1.7396 H   0  0  0  0  0  0  0  0  0  0  0  0
  -14.9279    0.0889   -0.1887 H   0  0  0  0  0  0  0  0  0  0  0  0
  -13.8726    7.7639    5.2976 H   0  0  0  0  0  0  0  0  0  0  0  0
  -15.5781    8.1614    5.2287 H   0  0  0  0  0  0  0  0  0  0  0  0
  -13.3556    4.7003   -3.4083 H   0  0  0  0  0  0  0  0  0  0  0  0
  -11.7482    4.3946   -2.7379 H   0  0  0  0  0  0  0  0  0  0  0  0
  -13.7521    7.9366    2.7836 H   0  0  0  0  0  0  0  0  0  0  0  0
  -11.2392    6.8498   -2.8727 H   0  0  0  0  0  0  0  0  0  0  0  0
  -12.0333    5.4234   -5.2214 H   0  0  0  0  0  0  0  0  0  0  0  0
  -10.5302    5.8003   -4.6903 H   0  0  0  0  0  0  0  0  0  0  0  0
  -15.3571    5.9774    4.1961 H   0  0  0  0  0  0  0  0  0  0  0  0
  -13.1101    6.2662   -1.0950 H   0  0  0  0  0  0  0  0  0  0  0  0
  -11.4633    6.9514   -5.3766 H   0  0  0  0  0  0  0  0  0  0  0  0
  1 19  1  0  0  0  0
  1 23  3  0  0  0  0
  2  4  2  0  0  0  0
  2  6  1  0  0  0  0
  3  5  1  0  0  0  0
  3  8  2  0  0  0  0
  4 10  1  0  0  0  0
  5 11  2  0  0  0  0
  6 12  2  0  0  0  0
  7 10  2  0  0  0  0
  7 12  1  0  0  0  0
  8 24  1  0  0  0  0
  9 11  1  0  0  0  0
  9 24  2  0  0  0  0
 10 21  1  0  0  0  0
 11 22  1  0  0  0  0
 12 32  1  0  0  0  0
 13 25  1  0  0  0  0
 13 26  2  0  0  0  0
 13 30  1  0  0  0  0
 14 25  2  0  0  0  0
 14 27  1  0  0  0  0
 14 28  1  0  0  0  0
 15 16  2  0  0  0  0
 15 17  1  0  0  0  0
 16 28  1  0  0  0  0
 16 31  1  0  0  0  0
 17 18  1  0  0  0  0
 17 27  2  0  0  0  0
 19 21  1  0  0  0  0
 20 22  1  0  0  0  0
 20 31  1  0  0  0  0
 21 30  1  0  0  0  0
 22 29  1  0  0  0  0
 26 28  1  0  0  0  0
  2 33  1  0  0  0  0
  3 34  1  0  0  0  0
  4 35  1  0  0  0  0
  5 36  1  0  0  0  0
  6 37  1  0  0  0  0
  7 38  1  0  0  0  0
  8 39  1  0  0  0  0
  9 40  1  0  0  0  0
 15 41  1  0  0  0  0
 18 42  1  0  0  0  0
 18 43  1  0  0  0  0
 18 44  1  0  0  0  0
 19 45  1  0  0  0  0
 19 46  1  0  0  0  0
 20 47  1  0  0  0  0
 20 48  1  0  0  0  0
 21 49  1  0  0  0  0
 22 50  1  0  0  0  0
 29 51  1  0  0  0  0
 29 52  1  0  0  0  0
 30 53  1  0  0  0  0
 31 54  1  0  0  0  0
 29 55  1  0  0  0  0
M  CHG  1  29   1
M  END
> <Molecule Name>
cmp_30

> <mmff94s_NoEstat>
82.10

> <Kd_nM>
4.8

$$$$
cmp_31
  -OEChem-07021816513D

 55 58  0     1  0  0  0  0  0999 V2000
  -14.3019    9.7539    4.7448 C   0  0  0  0  0  0  0  0  0  0  0  0
  -13.9703    9.6706   -3.1240 C   0  0  0  0  0  0  0  0  0  0  0  0
  -16.4915    9.6974    0.5128 C   0  0  0  0  0  0  0  0  0  0  0  0
  -15.1034    9.3691   -3.8714 C   0  0  0  0  0  0  0  0  0  0  0  0
  -15.4874    9.0968    1.2721 C   0  0  0  0  0  0  0  0  0  0  0  0
  -17.8190    9.6334    0.9364 C   0  0  0  0  0  0  0  0  0  0  0  0
  -12.9609    8.7238   -2.9894 C   0  0  0  0  0  0  0  0  0  0  0  0
  -17.1382    8.3680    2.8786 C   0  0  0  0  0  0  0  0  0  0  0  0
  -15.1781    8.1168   -4.4594 C   0  0  0  0  0  0  0  0  0  0  0  0
  -15.8107    8.4320    2.4550 C   0  0  0  0  0  0  0  0  0  0  0  0
  -18.1423    8.9686    2.1193 C   0  0  0  0  0  0  0  0  0  0  0  0
  -13.1317    7.5003   -3.6167 C   0  0  0  0  0  0  0  0  0  0  0  0
  -14.6476    5.4762    2.3196 C   0  0  0  0  0  0  0  0  0  0  0  0
  -14.5142    3.6106    1.3658 C   0  0  0  0  0  0  0  0  0  0  0  0
  -13.5364    3.0433   -1.1730 C   0  0  0  0  0  0  0  0  0  0  0  0
  -13.5277    4.3212   -0.7605 C   0  0  0  0  0  0  0  0  0  0  0  0
  -14.0797    2.0389   -0.2104 C   0  0  0  0  0  0  0  0  0  0  0  0
  -14.0954    0.5994   -0.6615 C   0  0  0  0  0  0  0  0  0  0  0  0
  -14.6199    8.3175    4.7164 C   0  0  0  0  0  0  0  0  0  0  0  0
  -12.5401    5.1458   -2.8272 C   0  0  0  0  0  0  0  0  0  0  0  0
  -14.7187    7.7783    3.2793 C   0  0  1  0  0  0  0  0  0  0  0  0
  -12.0495    6.4420   -3.4911 C   0  0  1  0  0  0  0  0  0  0  0  0
  -14.0497   10.8862    4.7679 N   0  0  0  0  0  0  0  0  0  0  0  0
  -14.2180    7.1712   -4.3510 N   0  0  0  0  0  0  0  0  0  0  0  0
  -14.9090    4.1565    2.4985 N   0  0  0  0  0  0  0  0  0  0  0  0
  -14.1131    5.8087    1.1485 N   0  0  0  0  0  0  0  0  0  0  0  0
  -14.5368    2.3050    0.9776 N   0  0  0  0  0  0  0  0  0  0  0  0
  -14.0205    4.6080    0.5189 N   0  0  0  0  0  0  0  0  0  0  0  0
  -11.4666    6.1327   -4.8023 N   0  3  0  0  0  0  0  0  0  0  0  0
  -14.9445    6.3373    3.3268 N   0  0  0  0  0  0  0  0  0  0  0  0
  -13.0593    5.3767   -1.5156 N   0  0  0  0  0  0  0  0  0  0  0  0
  -19.7805    8.8890    2.6408 Cl  0  0  0  0  0  0  0  0  0  0  0  0
  -13.8742   10.6415   -2.6474 H   0  0  0  0  0  0  0  0  0  0  0  0
  -16.2394   10.2148   -0.4084 H   0  0  0  0  0  0  0  0  0  0  0  0
  -15.9026   10.0917   -3.9899 H   0  0  0  0  0  0  0  0  0  0  0  0
  -14.4558    9.1515    0.9344 H   0  0  0  0  0  0  0  0  0  0  0  0
  -18.5913   10.1058    0.3343 H   0  0  0  0  0  0  0  0  0  0  0  0
  -12.0720    8.9466   -2.4090 H   0  0  0  0  0  0  0  0  0  0  0  0
  -17.3851    7.8489    3.8019 H   0  0  0  0  0  0  0  0  0  0  0  0
  -16.0410    7.8325   -5.0527 H   0  0  0  0  0  0  0  0  0  0  0  0
  -13.1752    2.7281   -2.1434 H   0  0  0  0  0  0  0  0  0  0  0  0
  -13.1606    0.1287   -0.3763 H   0  0  0  0  0  0  0  0  0  0  0  0
  -14.2138    0.5667   -1.7396 H   0  0  0  0  0  0  0  0  0  0  0  0
  -14.9279    0.0889   -0.1887 H   0  0  0  0  0  0  0  0  0  0  0  0
  -13.8726    7.7639    5.2976 H   0  0  0  0  0  0  0  0  0  0  0  0
  -15.5781    8.1614    5.2287 H   0  0  0  0  0  0  0  0  0  0  0  0
  -13.3556    4.7003   -3.4083 H   0  0  0  0  0  0  0  0  0  0  0  0
  -11.7482    4.3946   -2.7379 H   0  0  0  0  0  0  0  0  0  0  0  0
  -13.7521    7.9366    2.7836 H   0  0  0  0  0  0  0  0  0  0  0  0
  -11.2392    6.8498   -2.8727 H   0  0  0  0  0  0  0  0  0  0  0  0
  -12.0333    5.4234   -5.2214 H   0  0  0  0  0  0  0  0  0  0  0  0
  -10.5302    5.8003   -4.6903 H   0  0  0  0  0  0  0  0  0  0  0  0
  -15.3571    5.9774    4.1961 H   0  0  0  0  0  0  0  0  0  0  0  0
  -13.1101    6.2662   -1.0950 H   0  0  0  0  0  0  0  0  0  0  0  0
  -11.4633    6.9514   -5.3766 H   0  0  0  0  0  0  0  0  0  0  0  0
  1 19  1  0  0  0  0
  1 23  3  0  0  0  0
  2  4  2  0  0  0  0
  2  7  1  0  0  0  0
  3  5  2  0  0  0  0
  3  6  1  0  0  0  0
  4  9  1  0  0  0  0
  5 10  1  0  0  0  0
  6 11  2  0  0  0  0
  7 12  2  0  0  0  0
  8 10  2  0  0  0  0
  8 11  1  0  0  0  0
  9 24  2  0  0  0  0
 10 21  1  0  0  0  0
 11 32  1  0  0  0  0
 12 22  1  0  0  0  0
 12 24  1  0  0  0  0
 13 25  1  0  0  0  0
 13 26  2  0  0  0  0
 13 30  1  0  0  0  0
 14 25  2  0  0  0  0
 14 27  1  0  0  0  0
 14 28  1  0  0  0  0
 15 16  2  0  0  0  0
 15 17  1  0  0  0  0
 16 28  1  0  0  0  0
 16 31  1  0  0  0  0
 17 18  1  0  0  0  0
 17 27  2  0  0  0  0
 19 21  1  0  0  0  0
 20 22  1  0  0  0  0
 20 31  1  0  0  0  0
 21 30  1  0  0  0  0
 22 29  1  0  0  0  0
 26 28  1  0  0  0  0
  2 33  1  0  0  0  0
  3 34  1  0  0  0  0
  4 35  1  0  0  0  0
  5 36  1  0  0  0  0
  6 37  1  0  0  0  0
  7 38  1  0  0  0  0
  8 39  1  0  0  0  0
  9 40  1  0  0  0  0
 15 41  1  0  0  0  0
 18 42  1  0  0  0  0
 18 43  1  0  0  0  0
 18 44  1  0  0  0  0
 19 45  1  0  0  0  0
 19 46  1  0  0  0  0
 20 47  1  0  0  0  0
 20 48  1  0  0  0  0
 21 49  1  0  0  0  0
 22 50  1  0  0  0  0
 29 51  1  0  0  0  0
 29 52  1  0  0  0  0
 30 53  1  0  0  0  0
 31 54  1  0  0  0  0
 29 55  1  0  0  0  0
M  CHG  1  29   1
M  END
> <Molecule Name>
cmp_31

> <mmff94s_NoEstat>
80.64

> <Kd_nM>
6.5

$$$$
cmp_32
  -OEChem-07021816513D

 60 63  0     1  0  0  0  0  0999 V2000
  -14.3019    9.7539    4.7448 C   0  0  0  0  0  0  0  0  0  0  0  0
  -15.2802    8.1804   -4.4875 C   0  0  0  0  0  0  0  0  0  0  0  0
  -15.1382    9.4221   -3.8682 C   0  0  0  0  0  0  0  0  0  0  0  0
  -16.4915    9.6974    0.5128 C   0  0  0  0  0  0  0  0  0  0  0  0
  -14.2769    7.2194   -4.3618 C   0  0  0  0  0  0  0  0  0  0  0  0
  -15.4874    9.0968    1.2721 C   0  0  0  0  0  0  0  0  0  0  0  0
  -13.9930    9.7029   -3.1232 C   0  0  0  0  0  0  0  0  0  0  0  0
  -17.8190    9.6334    0.9364 C   0  0  0  0  0  0  0  0  0  0  0  0
  -17.1382    8.3680    2.8786 C   0  0  0  0  0  0  0  0  0  0  0  0
  -15.8107    8.4320    2.4550 C   0  0  0  0  0  0  0  0  0  0  0  0
  -13.1317    7.5003   -3.6167 C   0  0  0  0  0  0  0  0  0  0  0  0
  -12.9896    8.7420   -2.9974 C   0  0  0  0  0  0  0  0  0  0  0  0
  -18.1423    8.9686    2.1193 C   0  0  0  0  0  0  0  0  0  0  0  0
  -14.6476    5.4762    2.3196 C   0  0  0  0  0  0  0  0  0  0  0  0
  -14.5142    3.6106    1.3658 C   0  0  0  0  0  0  0  0  0  0  0  0
  -13.5364    3.0433   -1.1730 C   0  0  0  0  0  0  0  0  0  0  0  0
  -13.5277    4.3212   -0.7605 C   0  0  0  0  0  0  0  0  0  0  0  0
  -14.0797    2.0389   -0.2104 C   0  0  0  0  0  0  0  0  0  0  0  0
  -14.0954    0.5994   -0.6615 C   0  0  0  0  0  0  0  0  0  0  0  0
  -11.8144   10.3257   -1.6682 C   0  0  0  0  0  0  0  0  0  0  0  0
  -14.6199    8.3175    4.7164 C   0  0  0  0  0  0  0  0  0  0  0  0
  -12.5401    5.1458   -2.8272 C   0  0  0  0  0  0  0  0  0  0  0  0
  -14.7187    7.7783    3.2793 C   0  0  1  0  0  0  0  0  0  0  0  0
  -12.0495    6.4420   -3.4911 C   0  0  1  0  0  0  0  0  0  0  0  0
  -14.0497   10.8862    4.7679 N   0  0  0  0  0  0  0  0  0  0  0  0
  -14.9090    4.1565    2.4985 N   0  0  0  0  0  0  0  0  0  0  0  0
  -14.1131    5.8087    1.1485 N   0  0  0  0  0  0  0  0  0  0  0  0
  -14.5368    2.3050    0.9776 N   0  0  0  0  0  0  0  0  0  0  0  0
  -14.0205    4.6080    0.5189 N   0  0  0  0  0  0  0  0  0  0  0  0
  -11.4666    6.1327   -4.8023 N   0  3  0  0  0  0  0  0  0  0  0  0
  -14.9445    6.3373    3.3268 N   0  0  0  0  0  0  0  0  0  0  0  0
  -13.0593    5.3767   -1.5156 N   0  0  0  0  0  0  0  0  0  0  0  0
  -11.8770    9.0328   -2.2668 O   0  0  0  0  0  0  0  0  0  0  0  0
  -19.7805    8.8890    2.6408 Cl  0  0  0  0  0  0  0  0  0  0  0  0
  -16.1717    7.9613   -5.0683 H   0  0  0  0  0  0  0  0  0  0  0  0
  -15.9192   10.1702   -3.9671 H   0  0  0  0  0  0  0  0  0  0  0  0
  -16.2394   10.2148   -0.4084 H   0  0  0  0  0  0  0  0  0  0  0  0
  -14.3964    6.2556   -4.8494 H   0  0  0  0  0  0  0  0  0  0  0  0
  -14.4558    9.1515    0.9344 H   0  0  0  0  0  0  0  0  0  0  0  0
  -13.8880   10.6721   -2.6431 H   0  0  0  0  0  0  0  0  0  0  0  0
  -18.5913   10.1058    0.3343 H   0  0  0  0  0  0  0  0  0  0  0  0
  -17.3851    7.8489    3.8019 H   0  0  0  0  0  0  0  0  0  0  0  0
  -13.1752    2.7281   -2.1434 H   0  0  0  0  0  0  0  0  0  0  0  0
  -13.1606    0.1287   -0.3763 H   0  0  0  0  0  0  0  0  0  0  0  0
  -14.2138    0.5667   -1.7396 H   0  0  0  0  0  0  0  0  0  0  0  0
  -14.9279    0.0889   -0.1887 H   0  0  0  0  0  0  0  0  0  0  0  0
  -10.8773   10.4272   -1.1155 H   0  0  0  0  0  0  0  0  0  0  0  0
  -12.6640   10.4573   -0.9934 H   0  0  0  0  0  0  0  0  0  0  0  0
  -11.8552   11.0836   -2.4541 H   0  0  0  0  0  0  0  0  0  0  0  0
  -13.8726    7.7639    5.2976 H   0  0  0  0  0  0  0  0  0  0  0  0
  -15.5781    8.1614    5.2287 H   0  0  0  0  0  0  0  0  0  0  0  0
  -13.3556    4.7003   -3.4083 H   0  0  0  0  0  0  0  0  0  0  0  0
  -11.7482    4.3946   -2.7379 H   0  0  0  0  0  0  0  0  0  0  0  0
  -13.7521    7.9366    2.7836 H   0  0  0  0  0  0  0  0  0  0  0  0
  -11.2392    6.8498   -2.8727 H   0  0  0  0  0  0  0  0  0  0  0  0
  -12.0333    5.4234   -5.2214 H   0  0  0  0  0  0  0  0  0  0  0  0
  -10.5301    5.8003   -4.6903 H   0  0  0  0  0  0  0  0  0  0  0  0
  -15.3571    5.9774    4.1961 H   0  0  0  0  0  0  0  0  0  0  0  0
  -13.1101    6.2662   -1.0950 H   0  0  0  0  0  0  0  0  0  0  0  0
  -11.4633    6.9514   -5.3766 H   0  0  0  0  0  0  0  0  0  0  0  0
  1 21  1  0  0  0  0
  1 25  3  0  0  0  0
  2  3  2  0  0  0  0
  2  5  1  0  0  0  0
  3  7  1  0  0  0  0
  4  6  1  0  0  0  0
  4  8  2  0  0  0  0
  5 11  2  0  0  0  0
  6 10  2  0  0  0  0
  7 12  2  0  0  0  0
  8 13  1  0  0  0  0
  9 10  1  0  0  0  0
  9 13  2  0  0  0  0
 10 23  1  0  0  0  0
 11 12  1  0  0  0  0
 11 24  1  0  0  0  0
 12 33  1  0  0  0  0
 13 34  1  0  0  0  0
 14 26  1  0  0  0  0
 14 27  2  0  0  0  0
 14 31  1  0  0  0  0
 15 26  2  0  0  0  0
 15 28  1  0  0  0  0
 15 29  1  0  0  0  0
 16 17  2  0  0  0  0
 16 18  1  0  0  0  0
 17 29  1  0  0  0  0
 17 32  1  0  0  0  0
 18 19  1  0  0  0  0
 18 28  2  0  0  0  0
 20 33  1  0  0  0  0
 21 23  1  0  0  0  0
 22 24  1  0  0  0  0
 22 32  1  0  0  0  0
 23 31  1  0  0  0  0
 24 30  1  0  0  0  0
 27 29  1  0  0  0  0
  2 35  1  0  0  0  0
  3 36  1  0  0  0  0
  4 37  1  0  0  0  0
  5 38  1  0  0  0  0
  6 39  1  0  0  0  0
  7 40  1  0  0  0  0
  8 41  1  0  0  0  0
  9 42  1  0  0  0  0
 16 43  1  0  0  0  0
 19 44  1  0  0  0  0
 19 45  1  0  0  0  0
 19 46  1  0  0  0  0
 20 47  1  0  0  0  0
 20 48  1  0  0  0  0
 20 49  1  0  0  0  0
 21 50  1  0  0  0  0
 21 51  1  0  0  0  0
 22 52  1  0  0  0  0
 22 53  1  0  0  0  0
 23 54  1  0  0  0  0
 24 55  1  0  0  0  0
 30 56  1  0  0  0  0
 30 57  1  0  0  0  0
 31 58  1  0  0  0  0
 32 59  1  0  0  0  0
 30 60  1  0  0  0  0
M  CHG  1  30   1
M  END
> <Molecule Name>
cmp_32

> <mmff94s_NoEstat>
99.02

> <Kd_nM>
0.83

$$$$
cmp_33
  -OEChem-07021816513D

 53 56  0     1  0  0  0  0  0999 V2000
  -12.8072   14.4713   13.3081 C   0  0  0  0  0  0  0  0  0  0  0  0
   -8.5060   12.6828   14.3121 C   0  0  0  0  0  0  0  0  0  0  0  0
   -9.4462   12.8588   13.2969 C   0  0  0  0  0  0  0  0  0  0  0  0
   -7.9281   13.7931   14.9276 C   0  0  0  0  0  0  0  0  0  0  0  0
   -9.2307   15.2554   13.5128 C   0  0  0  0  0  0  0  0  0  0  0  0
   -9.8086   14.1451   12.8972 C   0  0  0  0  0  0  0  0  0  0  0  0
   -8.2905   15.0794   14.5280 C   0  0  0  0  0  0  0  0  0  0  0  0
   -9.3904   14.3973    9.7556 C   0  0  0  0  0  0  0  0  0  0  0  0
   -8.1519   14.2743    8.0648 C   0  0  0  0  0  0  0  0  0  0  0  0
   -6.8361   12.0441    7.0557 C   0  0  0  0  0  0  0  0  0  0  0  0
   -7.5837   11.8938    8.1610 C   0  0  0  0  0  0  0  0  0  0  0  0
   -6.7858   13.4173    6.4703 C   0  0  0  0  0  0  0  0  0  0  0  0
   -7.4899    7.6906   11.8098 C   0  0  0  0  0  0  0  0  0  0  0  0
   -7.8416    9.1485   11.7069 C   0  0  0  0  0  0  0  0  0  0  0  0
   -6.9158    8.5258   10.6991 C   0  0  0  0  0  0  0  0  0  0  0  0
   -5.9491   13.6000    5.2283 C   0  0  0  0  0  0  0  0  0  0  0  0
  -12.0680   15.1391   12.2251 C   0  0  0  0  0  0  0  0  0  0  0  0
   -7.0979    9.5162    8.3559 C   0  0  0  0  0  0  0  0  0  0  0  0
  -10.8299   14.3356   11.7927 C   0  0  1  0  0  0  0  0  0  0  0  0
   -7.3772    8.3140    9.2606 C   0  0  1  0  0  0  0  0  0  0  0  0
  -13.3914   13.9445   14.1610 N   0  0  0  0  0  0  0  0  0  0  0  0
   -8.8708   15.1427    8.7475 N   0  0  0  0  0  0  0  0  0  0  0  0
   -9.0506   13.1119    9.7621 N   0  0  0  0  0  0  0  0  0  0  0  0
   -7.4020   14.4603    6.9428 N   0  0  0  0  0  0  0  0  0  0  0  0
   -8.2470   13.0174    8.6704 N   0  0  0  0  0  0  0  0  0  0  0  0
   -6.7444    7.1303    8.7157 N   0  3  0  0  0  0  0  0  0  0  0  0
  -10.1995   15.0064   10.6604 N   0  0  0  0  0  0  0  0  0  0  0  0
   -7.7464   10.6984    8.8305 N   0  0  0  0  0  0  0  0  0  0  0  0
   -7.5763   16.4490   15.2870 Cl  0  0  0  0  0  0  0  0  0  0  0  0
   -8.2240   11.6810   14.6229 H   0  0  0  0  0  0  0  0  0  0  0  0
   -9.8913   11.9879   12.8228 H   0  0  0  0  0  0  0  0  0  0  0  0
   -7.1964   13.6409   15.7173 H   0  0  0  0  0  0  0  0  0  0  0  0
   -9.5170   16.2563   13.1979 H   0  0  0  0  0  0  0  0  0  0  0  0
   -6.2897   11.2335    6.5912 H   0  0  0  0  0  0  0  0  0  0  0  0
   -6.8387    7.3856   12.6195 H   0  0  0  0  0  0  0  0  0  0  0  0
   -8.2551    6.9682   11.5530 H   0  0  0  0  0  0  0  0  0  0  0  0
   -8.8425    9.4039   11.3809 H   0  0  0  0  0  0  0  0  0  0  0  0
   -7.4261    9.8201   12.4480 H   0  0  0  0  0  0  0  0  0  0  0  0
   -5.8648    8.7827   10.7555 H   0  0  0  0  0  0  0  0  0  0  0  0
   -6.5685   13.4249    4.3551 H   0  0  0  0  0  0  0  0  0  0  0  0
   -5.1261   12.8931    5.2477 H   0  0  0  0  0  0  0  0  0  0  0  0
   -5.5586   14.6122    5.2099 H   0  0  0  0  0  0  0  0  0  0  0  0
  -12.7404   15.3192   11.3776 H   0  0  0  0  0  0  0  0  0  0  0  0
  -11.7524   16.1300   12.5767 H   0  0  0  0  0  0  0  0  0  0  0  0
   -7.4484    9.3101    7.3383 H   0  0  0  0  0  0  0  0  0  0  0  0
   -6.0196    9.7003    8.2982 H   0  0  0  0  0  0  0  0  0  0  0  0
  -11.1631   13.3512   11.4391 H   0  0  0  0  0  0  0  0  0  0  0  0
   -8.4598    8.1414    9.2735 H   0  0  0  0  0  0  0  0  0  0  0  0
   -5.8654    7.4156    8.3335 H   0  0  0  0  0  0  0  0  0  0  0  0
   -7.3178    6.7343    7.9984 H   0  0  0  0  0  0  0  0  0  0  0  0
  -10.4010   16.0093   10.5657 H   0  0  0  0  0  0  0  0  0  0  0  0
   -8.3217   10.7245    9.6299 H   0  0  0  0  0  0  0  0  0  0  0  0
   -6.6008    6.4546    9.4387 H   0  0  0  0  0  0  0  0  0  0  0  0
  1 17  1  0  0  0  0
  1 21  3  0  0  0  0
  2  3  1  0  0  0  0
  2  4  2  0  0  0  0
  3  6  2  0  0  0  0
  4  7  1  0  0  0  0
  5  6  1  0  0  0  0
  5  7  2  0  0  0  0
  6 19  1  0  0  0  0
  7 29  1  0  0  0  0
  8 22  1  0  0  0  0
  8 23  2  0  0  0  0
  8 27  1  0  0  0  0
  9 22  2  0  0  0  0
  9 24  1  0  0  0  0
  9 25  1  0  0  0  0
 10 11  2  0  0  0  0
 10 12  1  0  0  0  0
 11 25  1  0  0  0  0
 11 28  1  0  0  0  0
 12 16  1  0  0  0  0
 12 24  2  0  0  0  0
 13 14  1  0  0  0  0
 13 15  1  0  0  0  0
 14 15  1  0  0  0  0
 15 20  1  0  0  0  0
 17 19  1  0  0  0  0
 18 20  1  0  0  0  0
 18 28  1  0  0  0  0
 19 27  1  0  0  0  0
 20 26  1  0  0  0  0
 23 25  1  0  0  0  0
  2 30  1  0  0  0  0
  3 31  1  0  0  0  0
  4 32  1  0  0  0  0
  5 33  1  0  0  0  0
 10 34  1  0  0  0  0
 13 35  1  0  0  0  0
 13 36  1  0  0  0  0
 14 37  1  0  0  0  0
 14 38  1  0  0  0  0
 15 39  1  0  0  0  0
 16 40  1  0  0  0  0
 16 41  1  0  0  0  0
 16 42  1  0  0  0  0
 17 43  1  0  0  0  0
 17 44  1  0  0  0  0
 18 45  1  0  0  0  0
 18 46  1  0  0  0  0
 19 47  1  0  0  0  0
 20 48  1  0  0  0  0
 26 49  1  0  0  0  0
 26 50  1  0  0  0  0
 27 51  1  0  0  0  0
 28 52  1  0  0  0  0
 26 53  1  0  0  0  0
M  CHG  1  26   1
M  END
> <Molecule Name>
cmp_33

> <mmff94s_NoEstat>
70.31

> <Kd_nM>
25

$$$$
cmp_34
  -OEChem-07021816513D

 55 58  0     1  0  0  0  0  0999 V2000
   -1.3366   -7.9791    1.8948 C   0  0  0  0  0  0  0  0  0  0  0  0
    3.3053   -7.7438    2.6913 C   0  0  0  0  0  0  0  0  0  0  0  0
    2.0612   -7.2196    3.0419 C   0  0  0  0  0  0  0  0  0  0  0  0
    3.8055   -7.5511    1.4035 C   0  0  0  0  0  0  0  0  0  0  0  0
    1.8174   -6.3099    0.8170 C   0  0  0  0  0  0  0  0  0  0  0  0
    2.0135    0.4725    2.6227 C   0  0  0  0  0  0  0  0  0  0  0  0
    1.3173   -6.5027    2.1048 C   0  0  0  0  0  0  0  0  0  0  0  0
    1.2786   -1.7982    2.6397 C   0  0  0  0  0  0  0  0  0  0  0  0
    1.7377   -0.6944    1.9097 C   0  0  0  0  0  0  0  0  0  0  0  0
    3.0616   -6.8342    0.4664 C   0  0  0  0  0  0  0  0  0  0  0  0
    1.8217    0.4818    4.0008 C   0  0  0  0  0  0  0  0  0  0  0  0
    1.1325   -1.6506    4.0121 C   0  0  0  0  0  0  0  0  0  0  0  0
    0.5709   -3.6774    3.3609 C   0  0  0  0  0  0  0  0  0  0  0  0
    1.0774   -1.6147   -0.2948 C   0  0  0  0  0  0  0  0  0  0  0  0
    3.2653   -0.4757   -0.0044 C   0  0  0  0  0  0  0  0  0  0  0  0
    1.0763   -1.1519   -1.7539 C   0  0  0  0  0  0  0  0  0  0  0  0
    3.1929   -0.0488   -1.4723 C   0  0  0  0  0  0  0  0  0  0  0  0
    2.1223    1.7410    4.7494 C   0  0  0  0  0  0  0  0  0  0  0  0
    2.4293   -0.6386   -3.6789 C   0  0  0  0  0  0  0  0  0  0  0  0
   -1.0460   -6.9967    2.9509 C   0  0  0  0  0  0  0  0  0  0  0  0
   -0.0357   -5.9341    2.4864 C   0  0  1  0  0  0  0  0  0  0  0  0
   -1.5673   -8.7533    1.0619 N   0  0  0  0  0  0  0  0  0  0  0  0
    0.9246   -3.0669    2.2496 N   0  0  0  0  0  0  0  0  0  0  0  0
    1.3808   -0.5570    4.7515 N   0  3  0  0  0  0  0  0  0  0  0  0
    0.6796   -2.8612    4.4547 N   0  0  0  0  0  0  0  0  0  0  0  0
    1.9200   -0.7367    0.5229 N   0  0  0  0  0  0  0  0  0  0  0  0
    2.4451   -1.0289   -2.2696 N   0  3  0  0  0  0  0  0  0  0  0  0
    0.1360   -4.9430    3.5488 N   0  0  0  0  0  0  0  0  0  0  0  0
    3.6788   -6.5977   -1.1226 Cl  0  0  0  0  0  0  0  0  0  0  0  0
    3.8842   -8.3022    3.4213 H   0  0  0  0  0  0  0  0  0  0  0  0
    1.6792   -7.3747    4.0476 H   0  0  0  0  0  0  0  0  0  0  0  0
    4.7766   -7.9657    1.1441 H   0  0  0  0  0  0  0  0  0  0  0  0
    1.2338   -5.7498    0.0901 H   0  0  0  0  0  0  0  0  0  0  0  0
    2.3724    1.3603    2.1089 H   0  0  0  0  0  0  0  0  0  0  0  0
    0.0473   -1.6074    0.0832 H   0  0  0  0  0  0  0  0  0  0  0  0
    1.4436   -2.6499   -0.2457 H   0  0  0  0  0  0  0  0  0  0  0  0
    3.8886   -1.3772    0.0795 H   0  0  0  0  0  0  0  0  0  0  0  0
    3.7492    0.3198    0.5758 H   0  0  0  0  0  0  0  0  0  0  0  0
    0.5161   -1.8858   -2.3461 H   0  0  0  0  0  0  0  0  0  0  0  0
    0.5442   -0.1942   -1.8338 H   0  0  0  0  0  0  0  0  0  0  0  0
    2.7283    0.9439   -1.5435 H   0  0  0  0  0  0  0  0  0  0  0  0
    4.2171    0.0427   -1.8538 H   0  0  0  0  0  0  0  0  0  0  0  0
    1.2284    2.3721    4.8015 H   0  0  0  0  0  0  0  0  0  0  0  0
    2.4580    1.5226    5.7698 H   0  0  0  0  0  0  0  0  0  0  0  0
    2.9245    2.3076    4.2620 H   0  0  0  0  0  0  0  0  0  0  0  0
    3.4516   -0.5491   -4.0555 H   0  0  0  0  0  0  0  0  0  0  0  0
    1.9246    0.3239   -3.7989 H   0  0  0  0  0  0  0  0  0  0  0  0
    1.8999   -1.3884   -4.2729 H   0  0  0  0  0  0  0  0  0  0  0  0
   -1.9807   -6.5342    3.2903 H   0  0  0  0  0  0  0  0  0  0  0  0
   -0.6385   -7.5285    3.8205 H   0  0  0  0  0  0  0  0  0  0  0  0
   -0.4604   -5.4084    1.6212 H   0  0  0  0  0  0  0  0  0  0  0  0
    0.4645   -3.1091    5.4111 H   0  0  0  0  0  0  0  0  0  0  0  0
   -0.1027   -5.2683    4.4971 H   0  0  0  0  0  0  0  0  0  0  0  0
    1.2546   -0.5141    5.7426 H   0  0  0  0  0  0  0  0  0  0  0  0
    2.8973   -1.9172   -2.1887 H   0  0  0  0  0  0  0  0  0  0  0  0
  1 20  1  0  0  0  0
  1 22  3  0  0  0  0
  2  3  1  0  0  0  0
  2  4  2  0  0  0  0
  3  7  2  0  0  0  0
  4 10  1  0  0  0  0
  5  7  1  0  0  0  0
  5 10  2  0  0  0  0
  6  9  2  0  0  0  0
  6 11  1  0  0  0  0
  7 21  1  0  0  0  0
  8  9  1  0  0  0  0
  8 12  2  0  0  0  0
  8 23  1  0  0  0  0
  9 26  1  0  0  0  0
 10 29  1  0  0  0  0
 11 18  1  0  0  0  0
 11 24  2  0  0  0  0
 12 24  1  0  0  0  0
 12 25  1  0  0  0  0
 13 23  2  0  0  0  0
 13 25  1  0  0  0  0
 13 28  1  0  0  0  0
 14 16  1  0  0  0  0
 14 26  1  0  0  0  0
 15 17  1  0  0  0  0
 15 26  1  0  0  0  0
 16 27  1  0  0  0  0
 17 27  1  0  0  0  0
 19 27  1  0  0  0  0
 20 21  1  0  0  0  0
 21 28  1  0  0  0  0
  2 30  1  0  0  0  0
  3 31  1  0  0  0  0
  4 32  1  0  0  0  0
  5 33  1  0  0  0  0
  6 34  1  0  0  0  0
 14 35  1  0  0  0  0
 14 36  1  0  0  0  0
 15 37  1  0  0  0  0
 15 38  1  0  0  0  0
 16 39  1  0  0  0  0
 16 40  1  0  0  0  0
 17 41  1  0  0  0  0
 17 42  1  0  0  0  0
 18 43  1  0  0  0  0
 18 44  1  0  0  0  0
 18 45  1  0  0  0  0
 19 46  1  0  0  0  0
 19 47  1  0  0  0  0
 19 48  1  0  0  0  0
 20 49  1  0  0  0  0
 20 50  1  0  0  0  0
 21 51  1  0  0  0  0
 25 52  1  0  0  0  0
 28 53  1  0  0  0  0
 24 54  1  0  0  0  0
 27 55  1  0  0  0  0
M  CHG  2  24   1  27   1
M  END
> <Molecule Name>
cmp_34

> <mmff94s_NoEstat>
73.16

> <Kd_nM>
11

$$$$
cmp_35
  -OEChem-07021816513D

 77 81  0     1  0  0  0  0  0999 V2000
    0.8515   -4.7804   -4.7618 C   0  0  0  0  0  0  0  0  0  0  0  0
    3.5044   -4.1783   -0.8700 C   0  0  0  0  0  0  0  0  0  0  0  0
    3.2428   -5.0129   -1.9565 C   0  0  0  0  0  0  0  0  0  0  0  0
    2.5310   -3.9833    0.1099 C   0  0  0  0  0  0  0  0  0  0  0  0
    1.0344   -5.4575   -1.0834 C   0  0  0  0  0  0  0  0  0  0  0  0
    1.7772  -12.3020    0.2389 C   0  0  0  0  0  0  0  0  0  0  0  0
    2.0078   -5.6525   -2.0633 C   0  0  0  0  0  0  0  0  0  0  0  0
    1.8221  -10.2780   -1.0253 C   0  0  0  0  0  0  0  0  0  0  0  0
    1.1893  -11.0729   -0.0611 C   0  0  0  0  0  0  0  0  0  0  0  0
    1.2960   -4.6229    0.0032 C   0  0  0  0  0  0  0  0  0  0  0  0
    2.9436  -12.6710   -0.4239 C   0  0  0  0  0  0  0  0  0  0  0  0
    2.9820  -10.7691   -1.6086 C   0  0  0  0  0  0  0  0  0  0  0  0
    2.4580   -8.7882   -2.4138 C   0  0  0  0  0  0  0  0  0  0  0  0
   -1.0267   -6.2446    5.8730 C   0  0  0  0  0  0  0  0  0  0  0  0
    0.3013   -6.2763    2.5264 C   0  0  0  0  0  0  0  0  0  0  0  0
   -0.0534   -3.8995    3.2734 C   0  0  0  0  0  0  0  0  0  0  0  0
    0.5216   -6.6790    3.9804 C   0  0  0  0  0  0  0  0  0  0  0  0
    0.1710   -4.3386    4.7170 C   0  0  0  0  0  0  0  0  0  0  0  0
   -0.9369   -9.8000   -0.1061 C   0  0  0  0  0  0  0  0  0  0  0  0
    0.0451  -10.5448    2.0501 C   0  0  0  0  0  0  0  0  0  0  0  0
   -2.3222   -9.8982    0.5377 C   0  0  0  0  0  0  0  0  0  0  0  0
   -1.3717  -10.6201    2.6238 C   0  0  0  0  0  0  0  0  0  0  0  0
    0.6826   -4.8132    2.2931 C   0  0  0  0  0  0  0  0  0  0  0  0
    3.5603  -13.9919   -0.0901 C   0  0  0  0  0  0  0  0  0  0  0  0
   -3.5890   -9.6812    2.5744 C   0  0  0  0  0  0  0  0  0  0  0  0
   -2.4783   -5.6642    7.6658 C   0  0  0  0  0  0  0  0  0  0  0  0
    1.8407   -5.8588   -4.6090 C   0  0  0  0  0  0  0  0  0  0  0  0
    1.7282   -6.5444   -3.2253 C   0  0  1  0  0  0  0  0  0  0  0  0
    0.0706   -3.9309   -4.8836 N   0  0  0  0  0  0  0  0  0  0  0  0
    1.5091   -9.0426   -1.5378 N   0  0  0  0  0  0  0  0  0  0  0  0
    3.5930  -11.9397   -1.3621 N   0  3  0  0  0  0  0  0  0  0  0  0
    3.3730   -9.8036   -2.4926 N   0  0  0  0  0  0  0  0  0  0  0  0
    0.0159  -10.6720    0.5876 N   0  0  0  0  0  0  0  0  0  0  0  0
   -0.1633   -5.7574    4.8877 N   0  0  0  0  0  0  0  0  0  0  0  0
   -2.2532   -9.6377    1.9807 N   0  3  0  0  0  0  0  0  0  0  0  0
    2.6375   -7.6864   -3.2199 N   0  0  0  0  0  0  0  0  0  0  0  0
   -1.2719   -7.4363    6.0517 O   0  0  0  0  0  0  0  0  0  0  0  0
    0.3402   -4.4318    0.9660 O   0  0  0  0  0  0  0  0  0  0  0  0
   -1.5800   -5.2469    6.6312 O   0  0  0  0  0  0  0  0  0  0  0  0
    4.4660   -3.6808   -0.7867 H   0  0  0  0  0  0  0  0  0  0  0  0
    4.0072   -5.1584   -2.7153 H   0  0  0  0  0  0  0  0  0  0  0  0
    2.7409   -3.3320    0.9538 H   0  0  0  0  0  0  0  0  0  0  0  0
    0.0705   -5.9546   -1.1641 H   0  0  0  0  0  0  0  0  0  0  0  0
    1.3302  -12.9604    0.9789 H   0  0  0  0  0  0  0  0  0  0  0  0
    0.8802   -6.9256    1.8592 H   0  0  0  0  0  0  0  0  0  0  0  0
   -0.7519   -6.4258    2.2539 H   0  0  0  0  0  0  0  0  0  0  0  0
   -1.1271   -3.9097    3.0437 H   0  0  0  0  0  0  0  0  0  0  0  0
    0.2736   -2.8619    3.1377 H   0  0  0  0  0  0  0  0  0  0  0  0
    0.1672   -7.7031    4.1364 H   0  0  0  0  0  0  0  0  0  0  0  0
    1.5883   -6.6583    4.2328 H   0  0  0  0  0  0  0  0  0  0  0  0
    1.2217   -4.2127    5.0037 H   0  0  0  0  0  0  0  0  0  0  0  0
   -0.4277   -3.7098    5.3820 H   0  0  0  0  0  0  0  0  0  0  0  0
   -1.0122  -10.0882   -1.1631 H   0  0  0  0  0  0  0  0  0  0  0  0
   -0.5960   -8.7547   -0.0707 H   0  0  0  0  0  0  0  0  0  0  0  0
    0.5032   -9.5881    2.3414 H   0  0  0  0  0  0  0  0  0  0  0  0
    0.6513  -11.3495    2.4868 H   0  0  0  0  0  0  0  0  0  0  0  0
   -2.9780   -9.1639    0.0542 H   0  0  0  0  0  0  0  0  0  0  0  0
   -2.7468  -10.8924    0.3429 H   0  0  0  0  0  0  0  0  0  0  0  0
   -1.7663  -11.6370    2.4955 H   0  0  0  0  0  0  0  0  0  0  0  0
   -1.3161  -10.4258    3.7018 H   0  0  0  0  0  0  0  0  0  0  0  0
    1.7654   -4.6878    2.4110 H   0  0  0  0  0  0  0  0  0  0  0  0
    3.1558  -14.7735   -0.7425 H   0  0  0  0  0  0  0  0  0  0  0  0
    4.6493  -13.9609   -0.2126 H   0  0  0  0  0  0  0  0  0  0  0  0
    3.3623  -14.2673    0.9525 H   0  0  0  0  0  0  0  0  0  0  0  0
   -3.5294   -9.4865    3.6483 H   0  0  0  0  0  0  0  0  0  0  0  0
   -4.0395  -10.6654    2.4196 H   0  0  0  0  0  0  0  0  0  0  0  0
   -4.2317   -8.9255    2.1148 H   0  0  0  0  0  0  0  0  0  0  0  0
   -2.8535   -4.7874    8.1991 H   0  0  0  0  0  0  0  0  0  0  0  0
   -1.9549   -6.3286    8.3579 H   0  0  0  0  0  0  0  0  0  0  0  0
   -3.3168   -6.1995    7.2139 H   0  0  0  0  0  0  0  0  0  0  0  0
    1.7153   -6.5901   -5.4165 H   0  0  0  0  0  0  0  0  0  0  0  0
    2.8444   -5.4336   -4.7391 H   0  0  0  0  0  0  0  0  0  0  0  0
    0.7078   -6.9649   -3.1490 H   0  0  0  0  0  0  0  0  0  0  0  0
    4.1859   -9.8326   -3.0932 H   0  0  0  0  0  0  0  0  0  0  0  0
    3.4274   -7.6501   -3.8425 H   0  0  0  0  0  0  0  0  0  0  0  0
    4.4314  -12.2374   -1.8186 H   0  0  0  0  0  0  0  0  0  0  0  0
   -1.8699   -8.7250    2.1219 H   0  0  0  0  0  0  0  0  0  0  0  0
  1 27  1  0  0  0  0
  1 29  3  0  0  0  0
  2  3  1  0  0  0  0
  2  4  2  0  0  0  0
  3  7  2  0  0  0  0
  4 10  1  0  0  0  0
  5  7  1  0  0  0  0
  5 10  2  0  0  0  0
  6  9  2  0  0  0  0
  6 11  1  0  0  0  0
  7 28  1  0  0  0  0
  8  9  1  0  0  0  0
  8 12  2  0  0  0  0
  8 30  1  0  0  0  0
  9 33  1  0  0  0  0
 10 38  1  0  0  0  0
 11 24  1  0  0  0  0
 11 31  2  0  0  0  0
 12 31  1  0  0  0  0
 12 32  1  0  0  0  0
 13 30  2  0  0  0  0
 13 32  1  0  0  0  0
 13 36  1  0  0  0  0
 14 34  1  0  0  0  0
 14 37  2  0  0  0  0
 14 39  1  0  0  0  0
 15 17  1  0  0  0  0
 15 23  1  0  0  0  0
 16 18  1  0  0  0  0
 16 23  1  0  0  0  0
 17 34  1  0  0  0  0
 18 34  1  0  0  0  0
 19 21  1  0  0  0  0
 19 33  1  0  0  0  0
 20 22  1  0  0  0  0
 20 33  1  0  0  0  0
 21 35  1  0  0  0  0
 22 35  1  0  0  0  0
 23 38  1  0  0  0  0
 25 35  1  0  0  0  0
 26 39  1  0  0  0  0
 27 28  1  0  0  0  0
 28 36  1  0  0  0  0
  2 40  1  0  0  0  0
  3 41  1  0  0  0  0
  4 42  1  0  0  0  0
  5 43  1  0  0  0  0
  6 44  1  0  0  0  0
 15 45  1  0  0  0  0
 15 46  1  0  0  0  0
 16 47  1  0  0  0  0
 16 48  1  0  0  0  0
 17 49  1  0  0  0  0
 17 50  1  0  0  0  0
 18 51  1  0  0  0  0
 18 52  1  0  0  0  0
 19 53  1  0  0  0  0
 19 54  1  0  0  0  0
 20 55  1  0  0  0  0
 20 56  1  0  0  0  0
 21 57  1  0  0  0  0
 21 58  1  0  0  0  0
 22 59  1  0  0  0  0
 22 60  1  0  0  0  0
 23 61  1  0  0  0  0
 24 62  1  0  0  0  0
 24 63  1  0  0  0  0
 24 64  1  0  0  0  0
 25 65  1  0  0  0  0
 25 66  1  0  0  0  0
 25 67  1  0  0  0  0
 26 68  1  0  0  0  0
 26 69  1  0  0  0  0
 26 70  1  0  0  0  0
 27 71  1  0  0  0  0
 27 72  1  0  0  0  0
 28 73  1  0  0  0  0
 32 74  1  0  0  0  0
 36 75  1  0  0  0  0
 31 76  1  0  0  0  0
 35 77  1  0  0  0  0
M  CHG  2  31   1  35   1
M  END
> <Molecule Name>
cmp_35

> <mmff94s_NoEstat>
101.34

> <Kd_nM>
11

$$$$
